data_17072005
_audit_creation_date              2020-04-13
_audit_creation_method            'Materials Studio'
_symmetry_space_group_name_H-M    'P1'
_symmetry_Int_Tables_number       1
_symmetry_cell_setting            triclinic
loop_
_symmetry_equiv_pos_as_xyz
  x,y,z
_cell_length_a                    40.0000
_cell_length_b                    127.8253
_cell_length_c                    10.0000
_cell_angle_alpha                 90.0000
_cell_angle_beta                  90.0000
_cell_angle_gamma                 90.0000
loop_
_atom_site_label
_atom_site_type_symbol
_atom_site_fract_x
_atom_site_fract_y
_atom_site_fract_z
_atom_site_U_iso_or_equiv
_atom_site_adp_type
_atom_site_occupancy
N1     N     0.28474   0.00558   0.50000   0.00000  Uiso   1.00
N2     N     0.25399   0.01114   0.50000   0.00000  Uiso   1.00
N3     N     0.25399   0.02225   0.50000   0.00000  Uiso   1.00
N4     N     0.28474   0.02780   0.50000   0.00000  Uiso   1.00
N5     N     0.34624   0.00558   0.50000   0.00000  Uiso   1.00
N6     N     0.31549   0.01114   0.50000   0.00000  Uiso   1.00
N7     N     0.31549   0.02225   0.50000   0.00000  Uiso   1.00
N8     N     0.34624   0.02780   0.50000   0.00000  Uiso   1.00
N9     N     0.40774   0.00558   0.50000   0.00000  Uiso   1.00
N10    N     0.37699   0.01114   0.50000   0.00000  Uiso   1.00
N11    N     0.37699   0.02225   0.50000   0.00000  Uiso   1.00
N12    N     0.40774   0.02780   0.50000   0.00000  Uiso   1.00
N13    N     0.46924   0.00558   0.50000   0.00000  Uiso   1.00
N14    N     0.43849   0.01114   0.50000   0.00000  Uiso   1.00
N15    N     0.43849   0.02225   0.50000   0.00000  Uiso   1.00
N16    N     0.46924   0.02780   0.50000   0.00000  Uiso   1.00
N17    N     0.53074   0.00558   0.50000   0.00000  Uiso   1.00
N18    N     0.49999   0.01114   0.50000   0.00000  Uiso   1.00
N19    N     0.49999   0.02225   0.50000   0.00000  Uiso   1.00
N20    N     0.53074   0.02780   0.50000   0.00000  Uiso   1.00
N21    N     0.59224   0.00558   0.50000   0.00000  Uiso   1.00
N22    N     0.56149   0.01114   0.50000   0.00000  Uiso   1.00
N23    N     0.56149   0.02225   0.50000   0.00000  Uiso   1.00
N24    N     0.59224   0.02780   0.50000   0.00000  Uiso   1.00
N25    N     0.65374   0.00558   0.50000   0.00000  Uiso   1.00
N26    N     0.62299   0.01114   0.50000   0.00000  Uiso   1.00
N27    N     0.62299   0.02225   0.50000   0.00000  Uiso   1.00
N28    N     0.65374   0.02780   0.50000   0.00000  Uiso   1.00
N29    N     0.71524   0.00558   0.50000   0.00000  Uiso   1.00
N30    N     0.68449   0.01114   0.50000   0.00000  Uiso   1.00
N31    N     0.68449   0.02225   0.50000   0.00000  Uiso   1.00
N32    N     0.71524   0.02780   0.50000   0.00000  Uiso   1.00
N33    N     0.74599   0.01114   0.50000   0.00000  Uiso   1.00
N34    N     0.74599   0.02225   0.50000   0.00000  Uiso   1.00
H35    H     0.22931   0.00668   0.50000   0.00000  Uiso   1.00
H36    H     0.22931   0.02671   0.50000   0.00000  Uiso   1.00
H37    H     0.77067   0.00668   0.50000   0.00000  Uiso   1.00
H38    H     0.77067   0.02671   0.50000   0.00000  Uiso   1.00
N39    N     0.28474   0.03892   0.50000   0.00000  Uiso   1.00
N40    N     0.25399   0.04447   0.50000   0.00000  Uiso   1.00
N41    N     0.25399   0.05558   0.50000   0.00000  Uiso   1.00
N42    N     0.28474   0.06114   0.50000   0.00000  Uiso   1.00
N43    N     0.34624   0.03892   0.50000   0.00000  Uiso   1.00
N44    N     0.31549   0.04447   0.50000   0.00000  Uiso   1.00
N45    N     0.31549   0.05558   0.50000   0.00000  Uiso   1.00
N46    N     0.34624   0.06114   0.50000   0.00000  Uiso   1.00
N47    N     0.40774   0.03892   0.50000   0.00000  Uiso   1.00
N48    N     0.37699   0.04447   0.50000   0.00000  Uiso   1.00
N49    N     0.37699   0.05558   0.50000   0.00000  Uiso   1.00
N50    N     0.40774   0.06114   0.50000   0.00000  Uiso   1.00
N51    N     0.46924   0.03892   0.50000   0.00000  Uiso   1.00
N52    N     0.43849   0.04447   0.50000   0.00000  Uiso   1.00
N53    N     0.43849   0.05558   0.50000   0.00000  Uiso   1.00
N54    N     0.46924   0.06114   0.50000   0.00000  Uiso   1.00
N55    N     0.53074   0.03892   0.50000   0.00000  Uiso   1.00
N56    N     0.49999   0.04447   0.50000   0.00000  Uiso   1.00
N57    N     0.49999   0.05558   0.50000   0.00000  Uiso   1.00
N58    N     0.53074   0.06114   0.50000   0.00000  Uiso   1.00
N59    N     0.59224   0.03892   0.50000   0.00000  Uiso   1.00
N60    N     0.56149   0.04447   0.50000   0.00000  Uiso   1.00
N61    N     0.56149   0.05558   0.50000   0.00000  Uiso   1.00
N62    N     0.59224   0.06114   0.50000   0.00000  Uiso   1.00
N63    N     0.65374   0.03892   0.50000   0.00000  Uiso   1.00
N64    N     0.62299   0.04447   0.50000   0.00000  Uiso   1.00
N65    N     0.62299   0.05558   0.50000   0.00000  Uiso   1.00
N66    N     0.65374   0.06114   0.50000   0.00000  Uiso   1.00
N67    N     0.71524   0.03892   0.50000   0.00000  Uiso   1.00
N68    N     0.68449   0.04447   0.50000   0.00000  Uiso   1.00
N69    N     0.68449   0.05558   0.50000   0.00000  Uiso   1.00
N70    N     0.71524   0.06114   0.50000   0.00000  Uiso   1.00
N71    N     0.74599   0.04447   0.50000   0.00000  Uiso   1.00
N72    N     0.74599   0.05558   0.50000   0.00000  Uiso   1.00
H73    H     0.22931   0.04001   0.50000   0.00000  Uiso   1.00
H74    H     0.22931   0.06004   0.50000   0.00000  Uiso   1.00
H75    H     0.77067   0.04001   0.50000   0.00000  Uiso   1.00
H76    H     0.77067   0.06004   0.50000   0.00000  Uiso   1.00
N77    N     0.28474   0.07225   0.50000   0.00000  Uiso   1.00
N78    N     0.25399   0.07780   0.50000   0.00000  Uiso   1.00
N79    N     0.25399   0.08892   0.50000   0.00000  Uiso   1.00
N80    N     0.28474   0.09447   0.50000   0.00000  Uiso   1.00
N81    N     0.34624   0.07225   0.50000   0.00000  Uiso   1.00
N82    N     0.31549   0.07780   0.50000   0.00000  Uiso   1.00
N83    N     0.31549   0.08892   0.50000   0.00000  Uiso   1.00
N84    N     0.34624   0.09447   0.50000   0.00000  Uiso   1.00
N85    N     0.40774   0.07225   0.50000   0.00000  Uiso   1.00
N86    N     0.37699   0.07780   0.50000   0.00000  Uiso   1.00
N87    N     0.37699   0.08892   0.50000   0.00000  Uiso   1.00
N88    N     0.40774   0.09447   0.50000   0.00000  Uiso   1.00
N89    N     0.46924   0.07225   0.50000   0.00000  Uiso   1.00
N90    N     0.43849   0.07780   0.50000   0.00000  Uiso   1.00
N91    N     0.43849   0.08892   0.50000   0.00000  Uiso   1.00
N92    N     0.46924   0.09447   0.50000   0.00000  Uiso   1.00
N93    N     0.53074   0.07225   0.50000   0.00000  Uiso   1.00
N94    N     0.49999   0.07780   0.50000   0.00000  Uiso   1.00
N95    N     0.49999   0.08892   0.50000   0.00000  Uiso   1.00
N96    N     0.53074   0.09447   0.50000   0.00000  Uiso   1.00
N97    N     0.59224   0.07225   0.50000   0.00000  Uiso   1.00
N98    N     0.56149   0.07780   0.50000   0.00000  Uiso   1.00
N99    N     0.56149   0.08892   0.50000   0.00000  Uiso   1.00
N100   N     0.59224   0.09447   0.50000   0.00000  Uiso   1.00
N101   N     0.65374   0.07225   0.50000   0.00000  Uiso   1.00
N102   N     0.62299   0.07780   0.50000   0.00000  Uiso   1.00
N103   N     0.62299   0.08892   0.50000   0.00000  Uiso   1.00
N104   N     0.65374   0.09447   0.50000   0.00000  Uiso   1.00
N105   N     0.71524   0.07225   0.50000   0.00000  Uiso   1.00
N106   N     0.68449   0.07780   0.50000   0.00000  Uiso   1.00
N107   N     0.68449   0.08892   0.50000   0.00000  Uiso   1.00
N108   N     0.71524   0.09447   0.50000   0.00000  Uiso   1.00
N109   N     0.74599   0.07780   0.50000   0.00000  Uiso   1.00
N110   N     0.74599   0.08892   0.50000   0.00000  Uiso   1.00
H111   H     0.22931   0.07335   0.50000   0.00000  Uiso   1.00
H112   H     0.22931   0.09337   0.50000   0.00000  Uiso   1.00
H113   H     0.77067   0.07335   0.50000   0.00000  Uiso   1.00
H114   H     0.77067   0.09337   0.50000   0.00000  Uiso   1.00
N115   N     0.28474   0.10558   0.50000   0.00000  Uiso   1.00
N116   N     0.25399   0.11114   0.50000   0.00000  Uiso   1.00
N117   N     0.25399   0.12225   0.50000   0.00000  Uiso   1.00
N118   N     0.28474   0.12780   0.50000   0.00000  Uiso   1.00
N119   N     0.34624   0.10558   0.50000   0.00000  Uiso   1.00
N120   N     0.31549   0.11114   0.50000   0.00000  Uiso   1.00
N121   N     0.31549   0.12225   0.50000   0.00000  Uiso   1.00
N122   N     0.34624   0.12780   0.50000   0.00000  Uiso   1.00
N123   N     0.40774   0.10558   0.50000   0.00000  Uiso   1.00
N124   N     0.37699   0.11114   0.50000   0.00000  Uiso   1.00
N125   N     0.37699   0.12225   0.50000   0.00000  Uiso   1.00
N126   N     0.40774   0.12780   0.50000   0.00000  Uiso   1.00
N127   N     0.46924   0.10558   0.50000   0.00000  Uiso   1.00
N128   N     0.43849   0.11114   0.50000   0.00000  Uiso   1.00
N129   N     0.43849   0.12225   0.50000   0.00000  Uiso   1.00
N130   N     0.46924   0.12780   0.50000   0.00000  Uiso   1.00
N131   N     0.53074   0.10558   0.50000   0.00000  Uiso   1.00
N132   N     0.49999   0.11114   0.50000   0.00000  Uiso   1.00
N133   N     0.49999   0.12225   0.50000   0.00000  Uiso   1.00
N134   N     0.53074   0.12780   0.50000   0.00000  Uiso   1.00
N135   N     0.59224   0.10558   0.50000   0.00000  Uiso   1.00
N136   N     0.56149   0.11114   0.50000   0.00000  Uiso   1.00
N137   N     0.56149   0.12225   0.50000   0.00000  Uiso   1.00
N138   N     0.59224   0.12780   0.50000   0.00000  Uiso   1.00
N139   N     0.65374   0.10558   0.50000   0.00000  Uiso   1.00
N140   N     0.62299   0.11114   0.50000   0.00000  Uiso   1.00
N141   N     0.62299   0.12225   0.50000   0.00000  Uiso   1.00
N142   N     0.65374   0.12780   0.50000   0.00000  Uiso   1.00
N143   N     0.71524   0.10558   0.50000   0.00000  Uiso   1.00
N144   N     0.68449   0.11114   0.50000   0.00000  Uiso   1.00
N145   N     0.68449   0.12225   0.50000   0.00000  Uiso   1.00
N146   N     0.71524   0.12780   0.50000   0.00000  Uiso   1.00
N147   N     0.74599   0.11114   0.50000   0.00000  Uiso   1.00
N148   N     0.74599   0.12225   0.50000   0.00000  Uiso   1.00
H149   H     0.22931   0.10668   0.50000   0.00000  Uiso   1.00
H150   H     0.22931   0.12671   0.50000   0.00000  Uiso   1.00
H151   H     0.77067   0.10668   0.50000   0.00000  Uiso   1.00
H152   H     0.77067   0.12671   0.50000   0.00000  Uiso   1.00
N153   N     0.28474   0.13892   0.50000   0.00000  Uiso   1.00
N154   N     0.25399   0.14447   0.50000   0.00000  Uiso   1.00
N155   N     0.25399   0.15558   0.50000   0.00000  Uiso   1.00
N156   N     0.28474   0.16114   0.50000   0.00000  Uiso   1.00
N157   N     0.34624   0.13892   0.50000   0.00000  Uiso   1.00
N158   N     0.31549   0.14447   0.50000   0.00000  Uiso   1.00
N159   N     0.31549   0.15558   0.50000   0.00000  Uiso   1.00
N160   N     0.34624   0.16114   0.50000   0.00000  Uiso   1.00
N161   N     0.40774   0.13892   0.50000   0.00000  Uiso   1.00
N162   N     0.37699   0.14447   0.50000   0.00000  Uiso   1.00
N163   N     0.37699   0.15558   0.50000   0.00000  Uiso   1.00
N164   N     0.40774   0.16114   0.50000   0.00000  Uiso   1.00
N165   N     0.46924   0.13892   0.50000   0.00000  Uiso   1.00
N166   N     0.43849   0.14447   0.50000   0.00000  Uiso   1.00
N167   N     0.43849   0.15558   0.50000   0.00000  Uiso   1.00
N168   N     0.46924   0.16114   0.50000   0.00000  Uiso   1.00
N169   N     0.53074   0.13892   0.50000   0.00000  Uiso   1.00
N170   N     0.49999   0.14447   0.50000   0.00000  Uiso   1.00
N171   N     0.49999   0.15558   0.50000   0.00000  Uiso   1.00
N172   N     0.53074   0.16114   0.50000   0.00000  Uiso   1.00
N173   N     0.59224   0.13892   0.50000   0.00000  Uiso   1.00
N174   N     0.56149   0.14447   0.50000   0.00000  Uiso   1.00
N175   N     0.56149   0.15558   0.50000   0.00000  Uiso   1.00
N176   N     0.59224   0.16114   0.50000   0.00000  Uiso   1.00
N177   N     0.65374   0.13892   0.50000   0.00000  Uiso   1.00
N178   N     0.62299   0.14447   0.50000   0.00000  Uiso   1.00
N179   N     0.62299   0.15558   0.50000   0.00000  Uiso   1.00
N180   N     0.65374   0.16114   0.50000   0.00000  Uiso   1.00
N181   N     0.71524   0.13892   0.50000   0.00000  Uiso   1.00
N182   N     0.68449   0.14447   0.50000   0.00000  Uiso   1.00
N183   N     0.68449   0.15558   0.50000   0.00000  Uiso   1.00
N184   N     0.71524   0.16114   0.50000   0.00000  Uiso   1.00
N185   N     0.74599   0.14447   0.50000   0.00000  Uiso   1.00
N186   N     0.74599   0.15558   0.50000   0.00000  Uiso   1.00
H187   H     0.22931   0.14001   0.50000   0.00000  Uiso   1.00
H188   H     0.22931   0.16004   0.50000   0.00000  Uiso   1.00
H189   H     0.77067   0.14001   0.50000   0.00000  Uiso   1.00
H190   H     0.77067   0.16004   0.50000   0.00000  Uiso   1.00
C191   C     0.40774   0.17225   0.50000   0.00000  Uiso   1.00
C192   C     0.40774   0.19447   0.50000   0.00000  Uiso   1.00
C193   C     0.46924   0.17225   0.50000   0.00000  Uiso   1.00
C194   C     0.43849   0.17780   0.50000   0.00000  Uiso   1.00
C195   C     0.43849   0.18892   0.50000   0.00000  Uiso   1.00
C196   C     0.46924   0.19447   0.50000   0.00000  Uiso   1.00
C197   C     0.53074   0.17225   0.50000   0.00000  Uiso   1.00
C198   C     0.49999   0.17780   0.50000   0.00000  Uiso   1.00
C199   C     0.49999   0.18892   0.50000   0.00000  Uiso   1.00
C200   C     0.53074   0.19447   0.50000   0.00000  Uiso   1.00
C201   C     0.59224   0.17225   0.50000   0.00000  Uiso   1.00
C202   C     0.56149   0.17780   0.50000   0.00000  Uiso   1.00
C203   C     0.56149   0.18892   0.50000   0.00000  Uiso   1.00
C204   C     0.59224   0.19447   0.50000   0.00000  Uiso   1.00
C205   C     0.40774   0.20558   0.50000   0.00000  Uiso   1.00
C206   C     0.40774   0.22780   0.50000   0.00000  Uiso   1.00
C207   C     0.46924   0.20558   0.50000   0.00000  Uiso   1.00
C208   C     0.43849   0.21114   0.50000   0.00000  Uiso   1.00
C209   C     0.43849   0.22225   0.50000   0.00000  Uiso   1.00
C210   C     0.46924   0.22780   0.50000   0.00000  Uiso   1.00
C211   C     0.53074   0.20558   0.50000   0.00000  Uiso   1.00
C212   C     0.49999   0.21114   0.50000   0.00000  Uiso   1.00
C213   C     0.49999   0.22225   0.50000   0.00000  Uiso   1.00
C214   C     0.53074   0.22780   0.50000   0.00000  Uiso   1.00
C215   C     0.59224   0.20558   0.50000   0.00000  Uiso   1.00
C216   C     0.56149   0.21114   0.50000   0.00000  Uiso   1.00
C217   C     0.56149   0.22225   0.50000   0.00000  Uiso   1.00
C218   C     0.59224   0.22780   0.50000   0.00000  Uiso   1.00
C219   C     0.40774   0.23892   0.50000   0.00000  Uiso   1.00
C220   C     0.40774   0.26114   0.50000   0.00000  Uiso   1.00
C221   C     0.46924   0.23892   0.50000   0.00000  Uiso   1.00
C222   C     0.43849   0.24447   0.50000   0.00000  Uiso   1.00
C223   C     0.43849   0.25558   0.50000   0.00000  Uiso   1.00
C224   C     0.46924   0.26114   0.50000   0.00000  Uiso   1.00
C225   C     0.53074   0.23892   0.50000   0.00000  Uiso   1.00
C226   C     0.49999   0.24447   0.50000   0.00000  Uiso   1.00
C227   C     0.49999   0.25558   0.50000   0.00000  Uiso   1.00
C228   C     0.53074   0.26114   0.50000   0.00000  Uiso   1.00
C229   C     0.59224   0.23892   0.50000   0.00000  Uiso   1.00
C230   C     0.56149   0.24447   0.50000   0.00000  Uiso   1.00
C231   C     0.56149   0.25558   0.50000   0.00000  Uiso   1.00
C232   C     0.59224   0.26114   0.50000   0.00000  Uiso   1.00
C233   C     0.40774   0.27225   0.50000   0.00000  Uiso   1.00
C234   C     0.40774   0.29447   0.50000   0.00000  Uiso   1.00
C235   C     0.46924   0.27225   0.50000   0.00000  Uiso   1.00
C236   C     0.43849   0.27780   0.50000   0.00000  Uiso   1.00
C237   C     0.43849   0.28892   0.50000   0.00000  Uiso   1.00
C238   C     0.46924   0.29447   0.50000   0.00000  Uiso   1.00
C239   C     0.53074   0.27225   0.50000   0.00000  Uiso   1.00
C240   C     0.49999   0.27780   0.50000   0.00000  Uiso   1.00
C241   C     0.49999   0.28892   0.50000   0.00000  Uiso   1.00
C242   C     0.53074   0.29447   0.50000   0.00000  Uiso   1.00
C243   C     0.59224   0.27225   0.50000   0.00000  Uiso   1.00
C244   C     0.56149   0.27780   0.50000   0.00000  Uiso   1.00
C245   C     0.56149   0.28892   0.50000   0.00000  Uiso   1.00
C246   C     0.59224   0.29447   0.50000   0.00000  Uiso   1.00
C247   C     0.40774   0.30558   0.50000   0.00000  Uiso   1.00
C248   C     0.40774   0.32780   0.50000   0.00000  Uiso   1.00
C249   C     0.46924   0.30558   0.50000   0.00000  Uiso   1.00
C250   C     0.43849   0.31114   0.50000   0.00000  Uiso   1.00
C251   C     0.43849   0.32225   0.50000   0.00000  Uiso   1.00
C252   C     0.46924   0.32780   0.50000   0.00000  Uiso   1.00
C253   C     0.53074   0.30558   0.50000   0.00000  Uiso   1.00
C254   C     0.49999   0.31114   0.50000   0.00000  Uiso   1.00
C255   C     0.49999   0.32225   0.50000   0.00000  Uiso   1.00
C256   C     0.53074   0.32780   0.50000   0.00000  Uiso   1.00
C257   C     0.59224   0.30558   0.50000   0.00000  Uiso   1.00
C258   C     0.56149   0.31114   0.50000   0.00000  Uiso   1.00
C259   C     0.56149   0.32225   0.50000   0.00000  Uiso   1.00
C260   C     0.59224   0.32780   0.50000   0.00000  Uiso   1.00
C261   C     0.40774   0.33892   0.50000   0.00000  Uiso   1.00
C262   C     0.40774   0.36114   0.50000   0.00000  Uiso   1.00
C263   C     0.46924   0.33892   0.50000   0.00000  Uiso   1.00
C264   C     0.43849   0.34447   0.50000   0.00000  Uiso   1.00
C265   C     0.43849   0.35558   0.50000   0.00000  Uiso   1.00
C266   C     0.46924   0.36114   0.50000   0.00000  Uiso   1.00
C267   C     0.53074   0.33892   0.50000   0.00000  Uiso   1.00
C268   C     0.49999   0.34447   0.50000   0.00000  Uiso   1.00
C269   C     0.49999   0.35558   0.50000   0.00000  Uiso   1.00
C270   C     0.53074   0.36114   0.50000   0.00000  Uiso   1.00
C271   C     0.59224   0.33892   0.50000   0.00000  Uiso   1.00
C272   C     0.56149   0.34447   0.50000   0.00000  Uiso   1.00
C273   C     0.56149   0.35558   0.50000   0.00000  Uiso   1.00
C274   C     0.59224   0.36114   0.50000   0.00000  Uiso   1.00
C275   C     0.40774   0.37225   0.50000   0.00000  Uiso   1.00
C276   C     0.40774   0.39447   0.50000   0.00000  Uiso   1.00
C277   C     0.46924   0.37225   0.50000   0.00000  Uiso   1.00
C278   C     0.43849   0.37780   0.50000   0.00000  Uiso   1.00
C279   C     0.43849   0.38892   0.50000   0.00000  Uiso   1.00
C280   C     0.46924   0.39447   0.50000   0.00000  Uiso   1.00
C281   C     0.53074   0.37225   0.50000   0.00000  Uiso   1.00
C282   C     0.49999   0.37780   0.50000   0.00000  Uiso   1.00
C283   C     0.49999   0.38892   0.50000   0.00000  Uiso   1.00
C284   C     0.53074   0.39447   0.50000   0.00000  Uiso   1.00
C285   C     0.59224   0.37225   0.50000   0.00000  Uiso   1.00
C286   C     0.56149   0.37780   0.50000   0.00000  Uiso   1.00
C287   C     0.56149   0.38892   0.50000   0.00000  Uiso   1.00
C288   C     0.59224   0.39447   0.50000   0.00000  Uiso   1.00
C289   C     0.40774   0.40558   0.50000   0.00000  Uiso   1.00
C290   C     0.40774   0.42780   0.50000   0.00000  Uiso   1.00
C291   C     0.46924   0.40558   0.50000   0.00000  Uiso   1.00
C292   C     0.43849   0.41114   0.50000   0.00000  Uiso   1.00
C293   C     0.43849   0.42225   0.50000   0.00000  Uiso   1.00
C294   C     0.46924   0.42780   0.50000   0.00000  Uiso   1.00
C295   C     0.53074   0.40558   0.50000   0.00000  Uiso   1.00
C296   C     0.49999   0.41114   0.50000   0.00000  Uiso   1.00
C297   C     0.49999   0.42225   0.50000   0.00000  Uiso   1.00
C298   C     0.53074   0.42780   0.50000   0.00000  Uiso   1.00
C299   C     0.59224   0.40558   0.50000   0.00000  Uiso   1.00
C300   C     0.56149   0.41114   0.50000   0.00000  Uiso   1.00
C301   C     0.56149   0.42225   0.50000   0.00000  Uiso   1.00
C302   C     0.59224   0.42780   0.50000   0.00000  Uiso   1.00
C303   C     0.40774   0.43892   0.50000   0.00000  Uiso   1.00
C304   C     0.40774   0.46114   0.50000   0.00000  Uiso   1.00
C305   C     0.46924   0.43892   0.50000   0.00000  Uiso   1.00
C306   C     0.43849   0.44447   0.50000   0.00000  Uiso   1.00
C307   C     0.43849   0.45558   0.50000   0.00000  Uiso   1.00
C308   C     0.46924   0.46114   0.50000   0.00000  Uiso   1.00
C309   C     0.53074   0.43892   0.50000   0.00000  Uiso   1.00
C310   C     0.49999   0.44447   0.50000   0.00000  Uiso   1.00
C311   C     0.49999   0.45558   0.50000   0.00000  Uiso   1.00
C312   C     0.53074   0.46114   0.50000   0.00000  Uiso   1.00
C313   C     0.59224   0.43892   0.50000   0.00000  Uiso   1.00
C314   C     0.56149   0.44447   0.50000   0.00000  Uiso   1.00
C315   C     0.56149   0.45558   0.50000   0.00000  Uiso   1.00
C316   C     0.59224   0.46114   0.50000   0.00000  Uiso   1.00
C317   C     0.40774   0.47225   0.50000   0.00000  Uiso   1.00
C318   C     0.40774   0.49447   0.50000   0.00000  Uiso   1.00
C319   C     0.46924   0.47225   0.50000   0.00000  Uiso   1.00
C320   C     0.43849   0.47780   0.50000   0.00000  Uiso   1.00
C321   C     0.43849   0.48892   0.50000   0.00000  Uiso   1.00
C322   C     0.46924   0.49447   0.50000   0.00000  Uiso   1.00
C323   C     0.53074   0.47225   0.50000   0.00000  Uiso   1.00
C324   C     0.49999   0.47780   0.50000   0.00000  Uiso   1.00
C325   C     0.49999   0.48892   0.50000   0.00000  Uiso   1.00
C326   C     0.53074   0.49447   0.50000   0.00000  Uiso   1.00
C327   C     0.59224   0.47225   0.50000   0.00000  Uiso   1.00
C328   C     0.56149   0.47780   0.50000   0.00000  Uiso   1.00
C329   C     0.56149   0.48892   0.50000   0.00000  Uiso   1.00
C330   C     0.59224   0.49447   0.50000   0.00000  Uiso   1.00
C331   C     0.40774   0.50558   0.50000   0.00000  Uiso   1.00
C332   C     0.40774   0.52780   0.50000   0.00000  Uiso   1.00
C333   C     0.46924   0.50558   0.50000   0.00000  Uiso   1.00
C334   C     0.43849   0.51114   0.50000   0.00000  Uiso   1.00
C335   C     0.43849   0.52225   0.50000   0.00000  Uiso   1.00
C336   C     0.46924   0.52780   0.50000   0.00000  Uiso   1.00
C337   C     0.53074   0.50558   0.50000   0.00000  Uiso   1.00
C338   C     0.49999   0.51114   0.50000   0.00000  Uiso   1.00
C339   C     0.49999   0.52225   0.50000   0.00000  Uiso   1.00
C340   C     0.53074   0.52780   0.50000   0.00000  Uiso   1.00
C341   C     0.59224   0.50558   0.50000   0.00000  Uiso   1.00
C342   C     0.56149   0.51114   0.50000   0.00000  Uiso   1.00
C343   C     0.56149   0.52225   0.50000   0.00000  Uiso   1.00
C344   C     0.59224   0.52780   0.50000   0.00000  Uiso   1.00
C345   C     0.40774   0.53892   0.50000   0.00000  Uiso   1.00
C346   C     0.40774   0.56114   0.50000   0.00000  Uiso   1.00
C347   C     0.46924   0.53892   0.50000   0.00000  Uiso   1.00
C348   C     0.43849   0.54447   0.50000   0.00000  Uiso   1.00
C349   C     0.43849   0.55558   0.50000   0.00000  Uiso   1.00
C350   C     0.46924   0.56114   0.50000   0.00000  Uiso   1.00
C351   C     0.53074   0.53892   0.50000   0.00000  Uiso   1.00
C352   C     0.49999   0.54447   0.50000   0.00000  Uiso   1.00
C353   C     0.49999   0.55558   0.50000   0.00000  Uiso   1.00
C354   C     0.53074   0.56114   0.50000   0.00000  Uiso   1.00
C355   C     0.59224   0.53892   0.50000   0.00000  Uiso   1.00
C356   C     0.56149   0.54447   0.50000   0.00000  Uiso   1.00
C357   C     0.56149   0.55558   0.50000   0.00000  Uiso   1.00
C358   C     0.59224   0.56114   0.50000   0.00000  Uiso   1.00
C359   C     0.40774   0.57225   0.50000   0.00000  Uiso   1.00
C360   C     0.40774   0.59447   0.50000   0.00000  Uiso   1.00
C361   C     0.46924   0.57225   0.50000   0.00000  Uiso   1.00
C362   C     0.43849   0.57780   0.50000   0.00000  Uiso   1.00
C363   C     0.43849   0.58892   0.50000   0.00000  Uiso   1.00
C364   C     0.46924   0.59447   0.50000   0.00000  Uiso   1.00
C365   C     0.53074   0.57225   0.50000   0.00000  Uiso   1.00
C366   C     0.49999   0.57780   0.50000   0.00000  Uiso   1.00
C367   C     0.49999   0.58892   0.50000   0.00000  Uiso   1.00
C368   C     0.53074   0.59447   0.50000   0.00000  Uiso   1.00
C369   C     0.59224   0.57225   0.50000   0.00000  Uiso   1.00
C370   C     0.56149   0.57780   0.50000   0.00000  Uiso   1.00
C371   C     0.56149   0.58892   0.50000   0.00000  Uiso   1.00
C372   C     0.59224   0.59447   0.50000   0.00000  Uiso   1.00
C373   C     0.40774   0.60558   0.50000   0.00000  Uiso   1.00
C374   C     0.40774   0.62780   0.50000   0.00000  Uiso   1.00
C375   C     0.46924   0.60558   0.50000   0.00000  Uiso   1.00
C376   C     0.43849   0.61114   0.50000   0.00000  Uiso   1.00
C377   C     0.43849   0.62225   0.50000   0.00000  Uiso   1.00
C378   C     0.46924   0.62780   0.50000   0.00000  Uiso   1.00
C379   C     0.53074   0.60558   0.50000   0.00000  Uiso   1.00
C380   C     0.49999   0.61114   0.50000   0.00000  Uiso   1.00
C381   C     0.49999   0.62225   0.50000   0.00000  Uiso   1.00
C382   C     0.53074   0.62780   0.50000   0.00000  Uiso   1.00
C383   C     0.59224   0.60558   0.50000   0.00000  Uiso   1.00
C384   C     0.56149   0.61114   0.50000   0.00000  Uiso   1.00
C385   C     0.56149   0.62225   0.50000   0.00000  Uiso   1.00
C386   C     0.59224   0.62780   0.50000   0.00000  Uiso   1.00
C387   C     0.40774   0.63892   0.50000   0.00000  Uiso   1.00
C388   C     0.40774   0.66114   0.50000   0.00000  Uiso   1.00
C389   C     0.46924   0.63892   0.50000   0.00000  Uiso   1.00
C390   C     0.43849   0.64447   0.50000   0.00000  Uiso   1.00
C391   C     0.43849   0.65558   0.50000   0.00000  Uiso   1.00
C392   C     0.46924   0.66114   0.50000   0.00000  Uiso   1.00
C393   C     0.53074   0.63892   0.50000   0.00000  Uiso   1.00
C394   C     0.49999   0.64447   0.50000   0.00000  Uiso   1.00
C395   C     0.49999   0.65558   0.50000   0.00000  Uiso   1.00
C396   C     0.53074   0.66114   0.50000   0.00000  Uiso   1.00
C397   C     0.59224   0.63892   0.50000   0.00000  Uiso   1.00
C398   C     0.56149   0.64447   0.50000   0.00000  Uiso   1.00
C399   C     0.56149   0.65558   0.50000   0.00000  Uiso   1.00
C400   C     0.59224   0.66114   0.50000   0.00000  Uiso   1.00
C401   C     0.40774   0.67225   0.50000   0.00000  Uiso   1.00
C402   C     0.40774   0.69447   0.50000   0.00000  Uiso   1.00
C403   C     0.46924   0.67225   0.50000   0.00000  Uiso   1.00
C404   C     0.43849   0.67780   0.50000   0.00000  Uiso   1.00
C405   C     0.43849   0.68892   0.50000   0.00000  Uiso   1.00
C406   C     0.46924   0.69447   0.50000   0.00000  Uiso   1.00
C407   C     0.53074   0.67225   0.50000   0.00000  Uiso   1.00
C408   C     0.49999   0.67780   0.50000   0.00000  Uiso   1.00
C409   C     0.49999   0.68892   0.50000   0.00000  Uiso   1.00
C410   C     0.53074   0.69447   0.50000   0.00000  Uiso   1.00
C411   C     0.59224   0.67225   0.50000   0.00000  Uiso   1.00
C412   C     0.56149   0.67780   0.50000   0.00000  Uiso   1.00
C413   C     0.56149   0.68892   0.50000   0.00000  Uiso   1.00
C414   C     0.59224   0.69447   0.50000   0.00000  Uiso   1.00
C415   C     0.40774   0.70558   0.50000   0.00000  Uiso   1.00
C416   C     0.40774   0.72780   0.50000   0.00000  Uiso   1.00
C417   C     0.46924   0.70558   0.50000   0.00000  Uiso   1.00
C418   C     0.43849   0.71114   0.50000   0.00000  Uiso   1.00
C419   C     0.43849   0.72225   0.50000   0.00000  Uiso   1.00
C420   C     0.46924   0.72780   0.50000   0.00000  Uiso   1.00
C421   C     0.53074   0.70558   0.50000   0.00000  Uiso   1.00
C422   C     0.49999   0.71114   0.50000   0.00000  Uiso   1.00
C423   C     0.49999   0.72225   0.50000   0.00000  Uiso   1.00
C424   C     0.53074   0.72780   0.50000   0.00000  Uiso   1.00
C425   C     0.59224   0.70558   0.50000   0.00000  Uiso   1.00
C426   C     0.56149   0.71114   0.50000   0.00000  Uiso   1.00
C427   C     0.56149   0.72225   0.50000   0.00000  Uiso   1.00
C428   C     0.59224   0.72780   0.50000   0.00000  Uiso   1.00
C429   C     0.40774   0.73892   0.50000   0.00000  Uiso   1.00
C430   C     0.40774   0.76114   0.50000   0.00000  Uiso   1.00
C431   C     0.46924   0.73892   0.50000   0.00000  Uiso   1.00
C432   C     0.43849   0.74447   0.50000   0.00000  Uiso   1.00
C433   C     0.43849   0.75558   0.50000   0.00000  Uiso   1.00
C434   C     0.46924   0.76114   0.50000   0.00000  Uiso   1.00
C435   C     0.53074   0.73892   0.50000   0.00000  Uiso   1.00
C436   C     0.49999   0.74447   0.50000   0.00000  Uiso   1.00
C437   C     0.49999   0.75558   0.50000   0.00000  Uiso   1.00
C438   C     0.53074   0.76114   0.50000   0.00000  Uiso   1.00
C439   C     0.59224   0.73892   0.50000   0.00000  Uiso   1.00
C440   C     0.56149   0.74447   0.50000   0.00000  Uiso   1.00
C441   C     0.56149   0.75558   0.50000   0.00000  Uiso   1.00
C442   C     0.59224   0.76114   0.50000   0.00000  Uiso   1.00
C443   C     0.40774   0.77225   0.50000   0.00000  Uiso   1.00
C444   C     0.40774   0.79447   0.50000   0.00000  Uiso   1.00
C445   C     0.46924   0.77225   0.50000   0.00000  Uiso   1.00
C446   C     0.43849   0.77780   0.50000   0.00000  Uiso   1.00
C447   C     0.43849   0.78892   0.50000   0.00000  Uiso   1.00
C448   C     0.46924   0.79447   0.50000   0.00000  Uiso   1.00
C449   C     0.53074   0.77225   0.50000   0.00000  Uiso   1.00
C450   C     0.49999   0.77780   0.50000   0.00000  Uiso   1.00
C451   C     0.49999   0.78892   0.50000   0.00000  Uiso   1.00
C452   C     0.53074   0.79447   0.50000   0.00000  Uiso   1.00
C453   C     0.59224   0.77225   0.50000   0.00000  Uiso   1.00
C454   C     0.56149   0.77780   0.50000   0.00000  Uiso   1.00
C455   C     0.56149   0.78892   0.50000   0.00000  Uiso   1.00
C456   C     0.59224   0.79447   0.50000   0.00000  Uiso   1.00
C457   C     0.40774   0.80558   0.50000   0.00000  Uiso   1.00
C458   C     0.40774   0.82780   0.50000   0.00000  Uiso   1.00
C459   C     0.46924   0.80558   0.50000   0.00000  Uiso   1.00
C460   C     0.43849   0.81114   0.50000   0.00000  Uiso   1.00
C461   C     0.43849   0.82225   0.50000   0.00000  Uiso   1.00
C462   C     0.46924   0.82780   0.50000   0.00000  Uiso   1.00
C463   C     0.53074   0.80558   0.50000   0.00000  Uiso   1.00
C464   C     0.49999   0.81114   0.50000   0.00000  Uiso   1.00
C465   C     0.49999   0.82225   0.50000   0.00000  Uiso   1.00
C466   C     0.53074   0.82780   0.50000   0.00000  Uiso   1.00
C467   C     0.59224   0.80558   0.50000   0.00000  Uiso   1.00
C468   C     0.56149   0.81114   0.50000   0.00000  Uiso   1.00
C469   C     0.56149   0.82225   0.50000   0.00000  Uiso   1.00
C470   C     0.59224   0.82780   0.50000   0.00000  Uiso   1.00
N471   N     0.28474   0.83892   0.50000   0.00000  Uiso   1.00
N472   N     0.25399   0.84447   0.50000   0.00000  Uiso   1.00
N473   N     0.25399   0.85558   0.50000   0.00000  Uiso   1.00
N474   N     0.28474   0.86114   0.50000   0.00000  Uiso   1.00
N475   N     0.34624   0.83892   0.50000   0.00000  Uiso   1.00
N476   N     0.31549   0.84447   0.50000   0.00000  Uiso   1.00
N477   N     0.31549   0.85558   0.50000   0.00000  Uiso   1.00
N478   N     0.34624   0.86114   0.50000   0.00000  Uiso   1.00
N479   N     0.40774   0.83892   0.50000   0.00000  Uiso   1.00
N480   N     0.37699   0.84447   0.50000   0.00000  Uiso   1.00
N481   N     0.37699   0.85558   0.50000   0.00000  Uiso   1.00
N482   N     0.40774   0.86114   0.50000   0.00000  Uiso   1.00
N483   N     0.46924   0.83892   0.50000   0.00000  Uiso   1.00
N484   N     0.43849   0.84447   0.50000   0.00000  Uiso   1.00
N485   N     0.43849   0.85558   0.50000   0.00000  Uiso   1.00
N486   N     0.46924   0.86114   0.50000   0.00000  Uiso   1.00
N487   N     0.53074   0.83892   0.50000   0.00000  Uiso   1.00
N488   N     0.49999   0.84447   0.50000   0.00000  Uiso   1.00
N489   N     0.49999   0.85558   0.50000   0.00000  Uiso   1.00
N490   N     0.53074   0.86114   0.50000   0.00000  Uiso   1.00
N491   N     0.59224   0.83892   0.50000   0.00000  Uiso   1.00
N492   N     0.56149   0.84447   0.50000   0.00000  Uiso   1.00
N493   N     0.56149   0.85558   0.50000   0.00000  Uiso   1.00
N494   N     0.59224   0.86114   0.50000   0.00000  Uiso   1.00
N495   N     0.65374   0.83892   0.50000   0.00000  Uiso   1.00
N496   N     0.62299   0.84447   0.50000   0.00000  Uiso   1.00
N497   N     0.62299   0.85558   0.50000   0.00000  Uiso   1.00
N498   N     0.65374   0.86114   0.50000   0.00000  Uiso   1.00
N499   N     0.71524   0.83892   0.50000   0.00000  Uiso   1.00
N500   N     0.68449   0.84447   0.50000   0.00000  Uiso   1.00
N501   N     0.68449   0.85558   0.50000   0.00000  Uiso   1.00
N502   N     0.71524   0.86114   0.50000   0.00000  Uiso   1.00
N503   N     0.74599   0.84447   0.50000   0.00000  Uiso   1.00
N504   N     0.74599   0.85558   0.50000   0.00000  Uiso   1.00
H505   H     0.22931   0.84001   0.50000   0.00000  Uiso   1.00
H506   H     0.22931   0.86004   0.50000   0.00000  Uiso   1.00
H507   H     0.77067   0.84001   0.50000   0.00000  Uiso   1.00
H508   H     0.77067   0.86004   0.50000   0.00000  Uiso   1.00
N509   N     0.28474   0.87225   0.50000   0.00000  Uiso   1.00
N510   N     0.25399   0.87780   0.50000   0.00000  Uiso   1.00
N511   N     0.25399   0.88892   0.50000   0.00000  Uiso   1.00
N512   N     0.28474   0.89447   0.50000   0.00000  Uiso   1.00
N513   N     0.34624   0.87225   0.50000   0.00000  Uiso   1.00
N514   N     0.31549   0.87780   0.50000   0.00000  Uiso   1.00
N515   N     0.31549   0.88892   0.50000   0.00000  Uiso   1.00
N516   N     0.34624   0.89447   0.50000   0.00000  Uiso   1.00
N517   N     0.40774   0.87225   0.50000   0.00000  Uiso   1.00
N518   N     0.37699   0.87780   0.50000   0.00000  Uiso   1.00
N519   N     0.37699   0.88892   0.50000   0.00000  Uiso   1.00
N520   N     0.40774   0.89447   0.50000   0.00000  Uiso   1.00
N521   N     0.46924   0.87225   0.50000   0.00000  Uiso   1.00
N522   N     0.43849   0.87780   0.50000   0.00000  Uiso   1.00
N523   N     0.43849   0.88892   0.50000   0.00000  Uiso   1.00
N524   N     0.46924   0.89447   0.50000   0.00000  Uiso   1.00
N525   N     0.53074   0.87225   0.50000   0.00000  Uiso   1.00
N526   N     0.49999   0.87780   0.50000   0.00000  Uiso   1.00
N527   N     0.49999   0.88892   0.50000   0.00000  Uiso   1.00
N528   N     0.53074   0.89447   0.50000   0.00000  Uiso   1.00
N529   N     0.59224   0.87225   0.50000   0.00000  Uiso   1.00
N530   N     0.56149   0.87780   0.50000   0.00000  Uiso   1.00
N531   N     0.56149   0.88892   0.50000   0.00000  Uiso   1.00
N532   N     0.59224   0.89447   0.50000   0.00000  Uiso   1.00
N533   N     0.65374   0.87225   0.50000   0.00000  Uiso   1.00
N534   N     0.62299   0.87780   0.50000   0.00000  Uiso   1.00
N535   N     0.62299   0.88892   0.50000   0.00000  Uiso   1.00
N536   N     0.65374   0.89447   0.50000   0.00000  Uiso   1.00
N537   N     0.71524   0.87225   0.50000   0.00000  Uiso   1.00
N538   N     0.68449   0.87780   0.50000   0.00000  Uiso   1.00
N539   N     0.68449   0.88892   0.50000   0.00000  Uiso   1.00
N540   N     0.71524   0.89447   0.50000   0.00000  Uiso   1.00
N541   N     0.74599   0.87780   0.50000   0.00000  Uiso   1.00
N542   N     0.74599   0.88892   0.50000   0.00000  Uiso   1.00
H543   H     0.22931   0.87335   0.50000   0.00000  Uiso   1.00
H544   H     0.22931   0.89337   0.50000   0.00000  Uiso   1.00
H545   H     0.77067   0.87335   0.50000   0.00000  Uiso   1.00
H546   H     0.77067   0.89337   0.50000   0.00000  Uiso   1.00
N547   N     0.28474   0.90558   0.50000   0.00000  Uiso   1.00
N548   N     0.25399   0.91114   0.50000   0.00000  Uiso   1.00
N549   N     0.25399   0.92225   0.50000   0.00000  Uiso   1.00
N550   N     0.28474   0.92780   0.50000   0.00000  Uiso   1.00
N551   N     0.34624   0.90558   0.50000   0.00000  Uiso   1.00
N552   N     0.31549   0.91114   0.50000   0.00000  Uiso   1.00
N553   N     0.31549   0.92225   0.50000   0.00000  Uiso   1.00
N554   N     0.34624   0.92780   0.50000   0.00000  Uiso   1.00
N555   N     0.40774   0.90558   0.50000   0.00000  Uiso   1.00
N556   N     0.37699   0.91114   0.50000   0.00000  Uiso   1.00
N557   N     0.37699   0.92225   0.50000   0.00000  Uiso   1.00
N558   N     0.40774   0.92780   0.50000   0.00000  Uiso   1.00
N559   N     0.46924   0.90558   0.50000   0.00000  Uiso   1.00
N560   N     0.43849   0.91114   0.50000   0.00000  Uiso   1.00
N561   N     0.43849   0.92225   0.50000   0.00000  Uiso   1.00
N562   N     0.46924   0.92780   0.50000   0.00000  Uiso   1.00
N563   N     0.53074   0.90558   0.50000   0.00000  Uiso   1.00
N564   N     0.49999   0.91114   0.50000   0.00000  Uiso   1.00
N565   N     0.49999   0.92225   0.50000   0.00000  Uiso   1.00
N566   N     0.53074   0.92780   0.50000   0.00000  Uiso   1.00
N567   N     0.59224   0.90558   0.50000   0.00000  Uiso   1.00
N568   N     0.56149   0.91114   0.50000   0.00000  Uiso   1.00
N569   N     0.56149   0.92225   0.50000   0.00000  Uiso   1.00
N570   N     0.59224   0.92780   0.50000   0.00000  Uiso   1.00
N571   N     0.65374   0.90558   0.50000   0.00000  Uiso   1.00
N572   N     0.62299   0.91114   0.50000   0.00000  Uiso   1.00
N573   N     0.62299   0.92225   0.50000   0.00000  Uiso   1.00
N574   N     0.65374   0.92780   0.50000   0.00000  Uiso   1.00
N575   N     0.71524   0.90558   0.50000   0.00000  Uiso   1.00
N576   N     0.68449   0.91114   0.50000   0.00000  Uiso   1.00
N577   N     0.68449   0.92225   0.50000   0.00000  Uiso   1.00
N578   N     0.71524   0.92780   0.50000   0.00000  Uiso   1.00
N579   N     0.74599   0.91114   0.50000   0.00000  Uiso   1.00
N580   N     0.74599   0.92225   0.50000   0.00000  Uiso   1.00
H581   H     0.22931   0.90668   0.50000   0.00000  Uiso   1.00
H582   H     0.22931   0.92671   0.50000   0.00000  Uiso   1.00
H583   H     0.77067   0.90668   0.50000   0.00000  Uiso   1.00
H584   H     0.77067   0.92671   0.50000   0.00000  Uiso   1.00
N585   N     0.28474   0.93892   0.50000   0.00000  Uiso   1.00
N586   N     0.25399   0.94447   0.50000   0.00000  Uiso   1.00
N587   N     0.25399   0.95558   0.50000   0.00000  Uiso   1.00
N588   N     0.28474   0.96114   0.50000   0.00000  Uiso   1.00
N589   N     0.34624   0.93892   0.50000   0.00000  Uiso   1.00
N590   N     0.31549   0.94447   0.50000   0.00000  Uiso   1.00
N591   N     0.31549   0.95558   0.50000   0.00000  Uiso   1.00
N592   N     0.34624   0.96114   0.50000   0.00000  Uiso   1.00
N593   N     0.40774   0.93892   0.50000   0.00000  Uiso   1.00
N594   N     0.37699   0.94447   0.50000   0.00000  Uiso   1.00
N595   N     0.37699   0.95558   0.50000   0.00000  Uiso   1.00
N596   N     0.40774   0.96114   0.50000   0.00000  Uiso   1.00
N597   N     0.46924   0.93892   0.50000   0.00000  Uiso   1.00
N598   N     0.43849   0.94447   0.50000   0.00000  Uiso   1.00
N599   N     0.43849   0.95558   0.50000   0.00000  Uiso   1.00
N600   N     0.46924   0.96114   0.50000   0.00000  Uiso   1.00
N601   N     0.53074   0.93892   0.50000   0.00000  Uiso   1.00
N602   N     0.49999   0.94447   0.50000   0.00000  Uiso   1.00
N603   N     0.49999   0.95558   0.50000   0.00000  Uiso   1.00
N604   N     0.53074   0.96114   0.50000   0.00000  Uiso   1.00
N605   N     0.59224   0.93892   0.50000   0.00000  Uiso   1.00
N606   N     0.56149   0.94447   0.50000   0.00000  Uiso   1.00
N607   N     0.56149   0.95558   0.50000   0.00000  Uiso   1.00
N608   N     0.59224   0.96114   0.50000   0.00000  Uiso   1.00
N609   N     0.65374   0.93892   0.50000   0.00000  Uiso   1.00
N610   N     0.62299   0.94447   0.50000   0.00000  Uiso   1.00
N611   N     0.62299   0.95558   0.50000   0.00000  Uiso   1.00
N612   N     0.65374   0.96114   0.50000   0.00000  Uiso   1.00
N613   N     0.71524   0.93892   0.50000   0.00000  Uiso   1.00
N614   N     0.68449   0.94447   0.50000   0.00000  Uiso   1.00
N615   N     0.68449   0.95558   0.50000   0.00000  Uiso   1.00
N616   N     0.71524   0.96114   0.50000   0.00000  Uiso   1.00
N617   N     0.74599   0.94447   0.50000   0.00000  Uiso   1.00
N618   N     0.74599   0.95558   0.50000   0.00000  Uiso   1.00
H619   H     0.22931   0.94001   0.50000   0.00000  Uiso   1.00
H620   H     0.22931   0.96004   0.50000   0.00000  Uiso   1.00
H621   H     0.77067   0.94001   0.50000   0.00000  Uiso   1.00
H622   H     0.77067   0.96004   0.50000   0.00000  Uiso   1.00
N623   N     0.28474   0.97225   0.50000   0.00000  Uiso   1.00
N624   N     0.25399   0.97780   0.50000   0.00000  Uiso   1.00
N625   N     0.25399   0.98892   0.50000   0.00000  Uiso   1.00
N626   N     0.28474   0.99447   0.50000   0.00000  Uiso   1.00
N627   N     0.34624   0.97225   0.50000   0.00000  Uiso   1.00
N628   N     0.31549   0.97780   0.50000   0.00000  Uiso   1.00
N629   N     0.31549   0.98892   0.50000   0.00000  Uiso   1.00
N630   N     0.34624   0.99447   0.50000   0.00000  Uiso   1.00
N631   N     0.40774   0.97225   0.50000   0.00000  Uiso   1.00
N632   N     0.37699   0.97780   0.50000   0.00000  Uiso   1.00
N633   N     0.37699   0.98892   0.50000   0.00000  Uiso   1.00
N634   N     0.40774   0.99447   0.50000   0.00000  Uiso   1.00
N635   N     0.46924   0.97225   0.50000   0.00000  Uiso   1.00
N636   N     0.43849   0.97780   0.50000   0.00000  Uiso   1.00
N637   N     0.43849   0.98892   0.50000   0.00000  Uiso   1.00
N638   N     0.46924   0.99447   0.50000   0.00000  Uiso   1.00
N639   N     0.53074   0.97225   0.50000   0.00000  Uiso   1.00
N640   N     0.49999   0.97780   0.50000   0.00000  Uiso   1.00
N641   N     0.49999   0.98892   0.50000   0.00000  Uiso   1.00
N642   N     0.53074   0.99447   0.50000   0.00000  Uiso   1.00
N643   N     0.59224   0.97225   0.50000   0.00000  Uiso   1.00
N644   N     0.56149   0.97780   0.50000   0.00000  Uiso   1.00
N645   N     0.56149   0.98892   0.50000   0.00000  Uiso   1.00
N646   N     0.59224   0.99447   0.50000   0.00000  Uiso   1.00
N647   N     0.65374   0.97225   0.50000   0.00000  Uiso   1.00
N648   N     0.62299   0.97780   0.50000   0.00000  Uiso   1.00
N649   N     0.62299   0.98892   0.50000   0.00000  Uiso   1.00
N650   N     0.65374   0.99447   0.50000   0.00000  Uiso   1.00
N651   N     0.71524   0.97225   0.50000   0.00000  Uiso   1.00
N652   N     0.68449   0.97780   0.50000   0.00000  Uiso   1.00
N653   N     0.68449   0.98892   0.50000   0.00000  Uiso   1.00
N654   N     0.71524   0.99447   0.50000   0.00000  Uiso   1.00
N655   N     0.74599   0.97780   0.50000   0.00000  Uiso   1.00
N656   N     0.74599   0.98892   0.50000   0.00000  Uiso   1.00
H657   H     0.22931   0.97335   0.50000   0.00000  Uiso   1.00
H658   H     0.22931   0.99337   0.50000   0.00000  Uiso   1.00
H659   H     0.77067   0.97335   0.50000   0.00000  Uiso   1.00
H660   H     0.77067   0.99337   0.50000   0.00000  Uiso   1.00
H661   H     0.28474   0.17006   0.50000   0.00000  Uiso   1.00
H662   H     0.34624   0.17006   0.50000   0.00000  Uiso   1.00
H663   H     0.65374   0.17006   0.50000   0.00000  Uiso   1.00
H664   H     0.71524   0.17006   0.50000   0.00000  Uiso   1.00
H665   H     0.38306   0.17671   0.50000   0.00000  Uiso   1.00
H666   H     0.38306   0.19001   0.50000   0.00000  Uiso   1.00
H667   H     0.61692   0.17671   0.50000   0.00000  Uiso   1.00
H668   H     0.61692   0.19001   0.50000   0.00000  Uiso   1.00
H669   H     0.38306   0.21004   0.50000   0.00000  Uiso   1.00
H670   H     0.38306   0.22335   0.50000   0.00000  Uiso   1.00
H671   H     0.61692   0.21004   0.50000   0.00000  Uiso   1.00
H672   H     0.61692   0.22335   0.50000   0.00000  Uiso   1.00
H673   H     0.38306   0.24337   0.50000   0.00000  Uiso   1.00
H674   H     0.38306   0.25668   0.50000   0.00000  Uiso   1.00
H675   H     0.61692   0.24337   0.50000   0.00000  Uiso   1.00
H676   H     0.61692   0.25668   0.50000   0.00000  Uiso   1.00
H677   H     0.38306   0.27671   0.50000   0.00000  Uiso   1.00
H678   H     0.38306   0.29001   0.50000   0.00000  Uiso   1.00
H679   H     0.61692   0.27671   0.50000   0.00000  Uiso   1.00
H680   H     0.61692   0.29001   0.50000   0.00000  Uiso   1.00
H681   H     0.38306   0.31004   0.50000   0.00000  Uiso   1.00
H682   H     0.38306   0.32335   0.50000   0.00000  Uiso   1.00
H683   H     0.61692   0.31004   0.50000   0.00000  Uiso   1.00
H684   H     0.61692   0.32335   0.50000   0.00000  Uiso   1.00
H685   H     0.38306   0.34337   0.50000   0.00000  Uiso   1.00
H686   H     0.38306   0.35668   0.50000   0.00000  Uiso   1.00
H687   H     0.61692   0.34337   0.50000   0.00000  Uiso   1.00
H688   H     0.61692   0.35668   0.50000   0.00000  Uiso   1.00
H689   H     0.38306   0.37671   0.50000   0.00000  Uiso   1.00
H690   H     0.38306   0.39001   0.50000   0.00000  Uiso   1.00
H691   H     0.61692   0.37671   0.50000   0.00000  Uiso   1.00
H692   H     0.61692   0.39001   0.50000   0.00000  Uiso   1.00
H693   H     0.38306   0.41004   0.50000   0.00000  Uiso   1.00
H694   H     0.38306   0.42335   0.50000   0.00000  Uiso   1.00
H695   H     0.61692   0.41004   0.50000   0.00000  Uiso   1.00
H696   H     0.61692   0.42335   0.50000   0.00000  Uiso   1.00
H697   H     0.38306   0.44337   0.50000   0.00000  Uiso   1.00
H698   H     0.38306   0.45668   0.50000   0.00000  Uiso   1.00
H699   H     0.61692   0.44337   0.50000   0.00000  Uiso   1.00
H700   H     0.61692   0.45668   0.50000   0.00000  Uiso   1.00
H701   H     0.38306   0.47671   0.50000   0.00000  Uiso   1.00
H702   H     0.38306   0.49001   0.50000   0.00000  Uiso   1.00
H703   H     0.61692   0.47671   0.50000   0.00000  Uiso   1.00
H704   H     0.61692   0.49001   0.50000   0.00000  Uiso   1.00
H705   H     0.38306   0.51004   0.50000   0.00000  Uiso   1.00
H706   H     0.38306   0.52335   0.50000   0.00000  Uiso   1.00
H707   H     0.61692   0.51004   0.50000   0.00000  Uiso   1.00
H708   H     0.61692   0.52335   0.50000   0.00000  Uiso   1.00
H709   H     0.38306   0.54337   0.50000   0.00000  Uiso   1.00
H710   H     0.38306   0.55668   0.50000   0.00000  Uiso   1.00
H711   H     0.61692   0.54337   0.50000   0.00000  Uiso   1.00
H712   H     0.61692   0.55668   0.50000   0.00000  Uiso   1.00
H713   H     0.38306   0.57671   0.50000   0.00000  Uiso   1.00
H714   H     0.38306   0.59001   0.50000   0.00000  Uiso   1.00
H715   H     0.61692   0.57671   0.50000   0.00000  Uiso   1.00
H716   H     0.61692   0.59001   0.50000   0.00000  Uiso   1.00
H717   H     0.38306   0.61004   0.50000   0.00000  Uiso   1.00
H718   H     0.38306   0.62335   0.50000   0.00000  Uiso   1.00
H719   H     0.61692   0.61004   0.50000   0.00000  Uiso   1.00
H720   H     0.61692   0.62335   0.50000   0.00000  Uiso   1.00
H721   H     0.38306   0.64337   0.50000   0.00000  Uiso   1.00
H722   H     0.38306   0.65668   0.50000   0.00000  Uiso   1.00
H723   H     0.61692   0.64337   0.50000   0.00000  Uiso   1.00
H724   H     0.61692   0.65668   0.50000   0.00000  Uiso   1.00
H725   H     0.38306   0.67671   0.50000   0.00000  Uiso   1.00
H726   H     0.38306   0.69001   0.50000   0.00000  Uiso   1.00
H727   H     0.61692   0.67671   0.50000   0.00000  Uiso   1.00
H728   H     0.61692   0.69001   0.50000   0.00000  Uiso   1.00
H729   H     0.38306   0.71004   0.50000   0.00000  Uiso   1.00
H730   H     0.38306   0.72335   0.50000   0.00000  Uiso   1.00
H731   H     0.61692   0.71004   0.50000   0.00000  Uiso   1.00
H732   H     0.61692   0.72335   0.50000   0.00000  Uiso   1.00
H733   H     0.38306   0.74337   0.50000   0.00000  Uiso   1.00
H734   H     0.38306   0.75668   0.50000   0.00000  Uiso   1.00
H735   H     0.61692   0.74337   0.50000   0.00000  Uiso   1.00
H736   H     0.61692   0.75668   0.50000   0.00000  Uiso   1.00
H737   H     0.38306   0.77671   0.50000   0.00000  Uiso   1.00
H738   H     0.38306   0.79001   0.50000   0.00000  Uiso   1.00
H739   H     0.61692   0.77671   0.50000   0.00000  Uiso   1.00
H740   H     0.61692   0.79001   0.50000   0.00000  Uiso   1.00
H741   H     0.38306   0.81004   0.50000   0.00000  Uiso   1.00
H742   H     0.38306   0.82335   0.50000   0.00000  Uiso   1.00
H743   H     0.61692   0.81004   0.50000   0.00000  Uiso   1.00
H744   H     0.61692   0.82335   0.50000   0.00000  Uiso   1.00
H745   H     0.28474   0.83000   0.50000   0.00000  Uiso   1.00
H746   H     0.34624   0.83000   0.50000   0.00000  Uiso   1.00
H747   H     0.65374   0.83000   0.50000   0.00000  Uiso   1.00
H748   H     0.71524   0.83000   0.50000   0.00000  Uiso   1.00
loop_
_geom_bond_atom_site_label_1
_geom_bond_atom_site_label_2
_geom_bond_distance
_geom_bond_site_symmetry_2
_ccdc_geom_bond_type
N1     N6      1.420   .     A
N1     N2      1.420   .     A
N1     N626    1.420   1_545 S
N2     N3      1.420   .     A
N2     H35     1.140   .     S
N3     N4      1.420   .     A
N3     H36     1.140   .     S
N4     N7      1.420   .     A
N4     N39     1.420   .     S
N5     N10     1.420   .     A
N5     N6      1.420   .     A
N5     N630    1.420   1_545 S
N6     N7      1.420   .     A
N7     N8      1.420   .     A
N8     N11     1.420   .     A
N8     N43     1.420   .     S
N9     N14     1.420   .     A
N9     N10     1.420   .     A
N9     N634    1.420   1_545 S
N10    N11     1.420   .     A
N11    N12     1.420   .     A
N12    N15     1.420   .     A
N12    N47     1.420   .     S
N13    N18     1.420   .     A
N13    N14     1.420   .     A
N13    N638    1.420   1_545 S
N14    N15     1.420   .     A
N15    N16     1.420   .     A
N16    N19     1.420   .     A
N16    N51     1.420   .     S
N17    N22     1.420   .     A
N17    N18     1.420   .     A
N17    N642    1.420   1_545 S
N18    N19     1.420   .     A
N19    N20     1.420   .     A
N20    N23     1.420   .     A
N20    N55     1.420   .     S
N21    N26     1.420   .     A
N21    N22     1.420   .     A
N21    N646    1.420   1_545 S
N22    N23     1.420   .     A
N23    N24     1.420   .     A
N24    N27     1.420   .     A
N24    N59     1.420   .     S
N25    N30     1.420   .     A
N25    N26     1.420   .     A
N25    N650    1.420   1_545 S
N26    N27     1.420   .     A
N27    N28     1.420   .     A
N28    N31     1.420   .     A
N28    N63     1.420   .     S
N29    N33     1.420   .     A
N29    N30     1.420   .     A
N29    N654    1.420   1_545 S
N30    N31     1.420   .     A
N31    N32     1.420   .     A
N32    N34     1.420   .     A
N32    N67     1.420   .     S
N33    N34     1.420   .     A
N33    H37     1.140   .     S
N34    H38     1.140   .     S
N39    N44     1.420   .     A
N39    N40     1.420   .     A
N40    N41     1.420   .     A
N40    H73     1.140   .     S
N41    N42     1.420   .     A
N41    H74     1.140   .     S
N42    N45     1.420   .     A
N42    N77     1.420   .     S
N43    N48     1.420   .     A
N43    N44     1.420   .     A
N44    N45     1.420   .     A
N45    N46     1.420   .     A
N46    N49     1.420   .     A
N46    N81     1.420   .     S
N47    N52     1.420   .     A
N47    N48     1.420   .     A
N48    N49     1.420   .     A
N49    N50     1.420   .     A
N50    N53     1.420   .     A
N50    N85     1.420   .     S
N51    N56     1.420   .     A
N51    N52     1.420   .     A
N52    N53     1.420   .     A
N53    N54     1.420   .     A
N54    N57     1.420   .     A
N54    N89     1.420   .     S
N55    N60     1.420   .     A
N55    N56     1.420   .     A
N56    N57     1.420   .     A
N57    N58     1.420   .     A
N58    N61     1.420   .     A
N58    N93     1.420   .     S
N59    N64     1.420   .     A
N59    N60     1.420   .     A
N60    N61     1.420   .     A
N61    N62     1.420   .     A
N62    N65     1.420   .     A
N62    N97     1.420   .     S
N63    N68     1.420   .     A
N63    N64     1.420   .     A
N64    N65     1.420   .     A
N65    N66     1.420   .     A
N66    N69     1.420   .     A
N66    N101    1.420   .     S
N67    N71     1.420   .     A
N67    N68     1.420   .     A
N68    N69     1.420   .     A
N69    N70     1.420   .     A
N70    N72     1.420   .     A
N70    N105    1.420   .     S
N71    N72     1.420   .     A
N71    H75     1.140   .     S
N72    H76     1.140   .     S
N77    N82     1.420   .     A
N77    N78     1.420   .     A
N78    N79     1.420   .     A
N78    H111    1.140   .     S
N79    N80     1.420   .     A
N79    H112    1.140   .     S
N80    N83     1.420   .     A
N80    N115    1.420   .     S
N81    N86     1.420   .     A
N81    N82     1.420   .     A
N82    N83     1.420   .     A
N83    N84     1.420   .     A
N84    N87     1.420   .     A
N84    N119    1.420   .     S
N85    N90     1.420   .     A
N85    N86     1.420   .     A
N86    N87     1.420   .     A
N87    N88     1.420   .     A
N88    N91     1.420   .     A
N88    N123    1.420   .     S
N89    N94     1.420   .     A
N89    N90     1.420   .     A
N90    N91     1.420   .     A
N91    N92     1.420   .     A
N92    N95     1.420   .     A
N92    N127    1.420   .     S
N93    N98     1.420   .     A
N93    N94     1.420   .     A
N94    N95     1.420   .     A
N95    N96     1.420   .     A
N96    N99     1.420   .     A
N96    N131    1.420   .     S
N97    N102    1.420   .     A
N97    N98     1.420   .     A
N98    N99     1.420   .     A
N99    N100    1.420   .     A
N100   N103    1.420   .     A
N100   N135    1.420   .     S
N101   N106    1.420   .     A
N101   N102    1.420   .     A
N102   N103    1.420   .     A
N103   N104    1.420   .     A
N104   N107    1.420   .     A
N104   N139    1.420   .     S
N105   N109    1.420   .     A
N105   N106    1.420   .     A
N106   N107    1.420   .     A
N107   N108    1.420   .     A
N108   N110    1.420   .     A
N108   N143    1.420   .     S
N109   N110    1.420   .     A
N109   H113    1.140   .     S
N110   H114    1.140   .     S
N115   N120    1.420   .     A
N115   N116    1.420   .     A
N116   N117    1.420   .     A
N116   H149    1.140   .     S
N117   N118    1.420   .     A
N117   H150    1.140   .     S
N118   N121    1.420   .     A
N118   N153    1.420   .     S
N119   N124    1.420   .     A
N119   N120    1.420   .     A
N120   N121    1.420   .     A
N121   N122    1.420   .     A
N122   N125    1.420   .     A
N122   N157    1.420   .     S
N123   N128    1.420   .     A
N123   N124    1.420   .     A
N124   N125    1.420   .     A
N125   N126    1.420   .     A
N126   N129    1.420   .     A
N126   N161    1.420   .     S
N127   N132    1.420   .     A
N127   N128    1.420   .     A
N128   N129    1.420   .     A
N129   N130    1.420   .     A
N130   N133    1.420   .     A
N130   N165    1.420   .     S
N131   N136    1.420   .     A
N131   N132    1.420   .     A
N132   N133    1.420   .     A
N133   N134    1.420   .     A
N134   N137    1.420   .     A
N134   N169    1.420   .     S
N135   N140    1.420   .     A
N135   N136    1.420   .     A
N136   N137    1.420   .     A
N137   N138    1.420   .     A
N138   N141    1.420   .     A
N138   N173    1.420   .     S
N139   N144    1.420   .     A
N139   N140    1.420   .     A
N140   N141    1.420   .     A
N141   N142    1.420   .     A
N142   N145    1.420   .     A
N142   N177    1.420   .     S
N143   N147    1.420   .     A
N143   N144    1.420   .     A
N144   N145    1.420   .     A
N145   N146    1.420   .     A
N146   N148    1.420   .     A
N146   N181    1.420   .     S
N147   N148    1.420   .     A
N147   H151    1.140   .     S
N148   H152    1.140   .     S
N153   N158    1.420   .     A
N153   N154    1.420   .     A
N154   N155    1.420   .     A
N154   H187    1.140   .     S
N155   N156    1.420   .     A
N155   H188    1.140   .     S
N156   N159    1.420   .     A
N156   H661    1.140   .     S
N157   N162    1.420   .     A
N157   N158    1.420   .     A
N158   N159    1.420   .     A
N159   N160    1.420   .     A
N160   N163    1.420   .     A
N160   H662    1.140   .     S
N161   N166    1.420   .     A
N161   N162    1.420   .     A
N162   N163    1.420   .     A
N163   N164    1.420   .     A
N164   N167    1.420   .     A
N164   C191    1.420   .     S
N165   N170    1.420   .     A
N165   N166    1.420   .     A
N166   N167    1.420   .     A
N167   N168    1.420   .     A
N168   N171    1.420   .     A
N168   C193    1.420   .     S
N169   N174    1.420   .     A
N169   N170    1.420   .     A
N170   N171    1.420   .     A
N171   N172    1.420   .     A
N172   N175    1.420   .     A
N172   C197    1.420   .     S
N173   N178    1.420   .     A
N173   N174    1.420   .     A
N174   N175    1.420   .     A
N175   N176    1.420   .     A
N176   N179    1.420   .     A
N176   C201    1.420   .     S
N177   N182    1.420   .     A
N177   N178    1.420   .     A
N178   N179    1.420   .     A
N179   N180    1.420   .     A
N180   N183    1.420   .     A
N180   H663    1.140   .     S
N181   N185    1.420   .     A
N181   N182    1.420   .     A
N182   N183    1.420   .     A
N183   N184    1.420   .     A
N184   N186    1.420   .     A
N184   H664    1.140   .     S
N185   N186    1.420   .     A
N185   H189    1.140   .     S
N186   H190    1.140   .     S
C191   C194    1.420   .     A
C191   H665    1.140   .     S
C192   C195    1.420   .     A
C192   C205    1.420   .     S
C192   H666    1.140   .     S
C193   C198    1.420   .     A
C193   C194    1.420   .     A
C194   C195    1.420   .     A
C195   C196    1.420   .     A
C196   C199    1.420   .     A
C196   C207    1.420   .     S
C197   C202    1.420   .     A
C197   C198    1.420   .     A
C198   C199    1.420   .     A
C199   C200    1.420   .     A
C200   C203    1.420   .     A
C200   C211    1.420   .     S
C201   C202    1.420   .     A
C201   H667    1.140   .     S
C202   C203    1.420   .     A
C203   C204    1.420   .     A
C204   C215    1.420   .     S
C204   H668    1.140   .     S
C205   C208    1.420   .     A
C205   H669    1.140   .     S
C206   C209    1.420   .     A
C206   C219    1.420   .     S
C206   H670    1.140   .     S
C207   C212    1.420   .     A
C207   C208    1.420   .     A
C208   C209    1.420   .     A
C209   C210    1.420   .     A
C210   C213    1.420   .     A
C210   C221    1.420   .     S
C211   C216    1.420   .     A
C211   C212    1.420   .     A
C212   C213    1.420   .     A
C213   C214    1.420   .     A
C214   C217    1.420   .     A
C214   C225    1.420   .     S
C215   C216    1.420   .     A
C215   H671    1.140   .     S
C216   C217    1.420   .     A
C217   C218    1.420   .     A
C218   C229    1.420   .     S
C218   H672    1.140   .     S
C219   C222    1.420   .     A
C219   H673    1.140   .     S
C220   C223    1.420   .     A
C220   C233    1.420   .     S
C220   H674    1.140   .     S
C221   C226    1.420   .     A
C221   C222    1.420   .     A
C222   C223    1.420   .     A
C223   C224    1.420   .     A
C224   C227    1.420   .     A
C224   C235    1.420   .     S
C225   C230    1.420   .     A
C225   C226    1.420   .     A
C226   C227    1.420   .     A
C227   C228    1.420   .     A
C228   C231    1.420   .     A
C228   C239    1.420   .     S
C229   C230    1.420   .     A
C229   H675    1.140   .     S
C230   C231    1.420   .     A
C231   C232    1.420   .     A
C232   C243    1.420   .     S
C232   H676    1.140   .     S
C233   C236    1.420   .     A
C233   H677    1.140   .     S
C234   C237    1.420   .     A
C234   C247    1.420   .     S
C234   H678    1.140   .     S
C235   C240    1.420   .     A
C235   C236    1.420   .     A
C236   C237    1.420   .     A
C237   C238    1.420   .     A
C238   C241    1.420   .     A
C238   C249    1.420   .     S
C239   C244    1.420   .     A
C239   C240    1.420   .     A
C240   C241    1.420   .     A
C241   C242    1.420   .     A
C242   C245    1.420   .     A
C242   C253    1.420   .     S
C243   C244    1.420   .     A
C243   H679    1.140   .     S
C244   C245    1.420   .     A
C245   C246    1.420   .     A
C246   C257    1.420   .     S
C246   H680    1.140   .     S
C247   C250    1.420   .     A
C247   H681    1.140   .     S
C248   C251    1.420   .     A
C248   C261    1.420   .     S
C248   H682    1.140   .     S
C249   C254    1.420   .     A
C249   C250    1.420   .     A
C250   C251    1.420   .     A
C251   C252    1.420   .     A
C252   C255    1.420   .     A
C252   C263    1.420   .     S
C253   C258    1.420   .     A
C253   C254    1.420   .     A
C254   C255    1.420   .     A
C255   C256    1.420   .     A
C256   C259    1.420   .     A
C256   C267    1.420   .     S
C257   C258    1.420   .     A
C257   H683    1.140   .     S
C258   C259    1.420   .     A
C259   C260    1.420   .     A
C260   C271    1.420   .     S
C260   H684    1.140   .     S
C261   C264    1.420   .     A
C261   H685    1.140   .     S
C262   C265    1.420   .     A
C262   C275    1.420   .     S
C262   H686    1.140   .     S
C263   C268    1.420   .     A
C263   C264    1.420   .     A
C264   C265    1.420   .     A
C265   C266    1.420   .     A
C266   C269    1.420   .     A
C266   C277    1.420   .     S
C267   C272    1.420   .     A
C267   C268    1.420   .     A
C268   C269    1.420   .     A
C269   C270    1.420   .     A
C270   C273    1.420   .     A
C270   C281    1.420   .     S
C271   C272    1.420   .     A
C271   H687    1.140   .     S
C272   C273    1.420   .     A
C273   C274    1.420   .     A
C274   C285    1.420   .     S
C274   H688    1.140   .     S
C275   C278    1.420   .     A
C275   H689    1.140   .     S
C276   C279    1.420   .     A
C276   C289    1.420   .     S
C276   H690    1.140   .     S
C277   C282    1.420   .     A
C277   C278    1.420   .     A
C278   C279    1.420   .     A
C279   C280    1.420   .     A
C280   C283    1.420   .     A
C280   C291    1.420   .     S
C281   C286    1.420   .     A
C281   C282    1.420   .     A
C282   C283    1.420   .     A
C283   C284    1.420   .     A
C284   C287    1.420   .     A
C284   C295    1.420   .     S
C285   C286    1.420   .     A
C285   H691    1.140   .     S
C286   C287    1.420   .     A
C287   C288    1.420   .     A
C288   C299    1.420   .     S
C288   H692    1.140   .     S
C289   C292    1.420   .     A
C289   H693    1.140   .     S
C290   C293    1.420   .     A
C290   C303    1.420   .     S
C290   H694    1.140   .     S
C291   C296    1.420   .     A
C291   C292    1.420   .     A
C292   C293    1.420   .     A
C293   C294    1.420   .     A
C294   C297    1.420   .     A
C294   C305    1.420   .     S
C295   C300    1.420   .     A
C295   C296    1.420   .     A
C296   C297    1.420   .     A
C297   C298    1.420   .     A
C298   C301    1.420   .     A
C298   C309    1.420   .     S
C299   C300    1.420   .     A
C299   H695    1.140   .     S
C300   C301    1.420   .     A
C301   C302    1.420   .     A
C302   C313    1.420   .     S
C302   H696    1.140   .     S
C303   C306    1.420   .     A
C303   H697    1.140   .     S
C304   C307    1.420   .     A
C304   C317    1.420   .     S
C304   H698    1.140   .     S
C305   C310    1.420   .     A
C305   C306    1.420   .     A
C306   C307    1.420   .     A
C307   C308    1.420   .     A
C308   C311    1.420   .     A
C308   C319    1.420   .     S
C309   C314    1.420   .     A
C309   C310    1.420   .     A
C310   C311    1.420   .     A
C311   C312    1.420   .     A
C312   C315    1.420   .     A
C312   C323    1.420   .     S
C313   C314    1.420   .     A
C313   H699    1.140   .     S
C314   C315    1.420   .     A
C315   C316    1.420   .     A
C316   C327    1.420   .     S
C316   H700    1.140   .     S
C317   C320    1.420   .     A
C317   H701    1.140   .     S
C318   C321    1.420   .     A
C318   C331    1.420   .     S
C318   H702    1.140   .     S
C319   C324    1.420   .     A
C319   C320    1.420   .     A
C320   C321    1.420   .     A
C321   C322    1.420   .     A
C322   C325    1.420   .     A
C322   C333    1.420   .     S
C323   C328    1.420   .     A
C323   C324    1.420   .     A
C324   C325    1.420   .     A
C325   C326    1.420   .     A
C326   C329    1.420   .     A
C326   C337    1.420   .     S
C327   C328    1.420   .     A
C327   H703    1.140   .     S
C328   C329    1.420   .     A
C329   C330    1.420   .     A
C330   C341    1.420   .     S
C330   H704    1.140   .     S
C331   C334    1.420   .     A
C331   H705    1.140   .     S
C332   C335    1.420   .     A
C332   C345    1.420   .     S
C332   H706    1.140   .     S
C333   C338    1.420   .     A
C333   C334    1.420   .     A
C334   C335    1.420   .     A
C335   C336    1.420   .     A
C336   C339    1.420   .     A
C336   C347    1.420   .     S
C337   C342    1.420   .     A
C337   C338    1.420   .     A
C338   C339    1.420   .     A
C339   C340    1.420   .     A
C340   C343    1.420   .     A
C340   C351    1.420   .     S
C341   C342    1.420   .     A
C341   H707    1.140   .     S
C342   C343    1.420   .     A
C343   C344    1.420   .     A
C344   C355    1.420   .     S
C344   H708    1.140   .     S
C345   C348    1.420   .     A
C345   H709    1.140   .     S
C346   C349    1.420   .     A
C346   C359    1.420   .     S
C346   H710    1.140   .     S
C347   C352    1.420   .     A
C347   C348    1.420   .     A
C348   C349    1.420   .     A
C349   C350    1.420   .     A
C350   C353    1.420   .     A
C350   C361    1.420   .     S
C351   C356    1.420   .     A
C351   C352    1.420   .     A
C352   C353    1.420   .     A
C353   C354    1.420   .     A
C354   C357    1.420   .     A
C354   C365    1.420   .     S
C355   C356    1.420   .     A
C355   H711    1.140   .     S
C356   C357    1.420   .     A
C357   C358    1.420   .     A
C358   C369    1.420   .     S
C358   H712    1.140   .     S
C359   C362    1.420   .     A
C359   H713    1.140   .     S
C360   C363    1.420   .     A
C360   C373    1.420   .     S
C360   H714    1.140   .     S
C361   C366    1.420   .     A
C361   C362    1.420   .     A
C362   C363    1.420   .     A
C363   C364    1.420   .     A
C364   C367    1.420   .     A
C364   C375    1.420   .     S
C365   C370    1.420   .     A
C365   C366    1.420   .     A
C366   C367    1.420   .     A
C367   C368    1.420   .     A
C368   C371    1.420   .     A
C368   C379    1.420   .     S
C369   C370    1.420   .     A
C369   H715    1.140   .     S
C370   C371    1.420   .     A
C371   C372    1.420   .     A
C372   C383    1.420   .     S
C372   H716    1.140   .     S
C373   C376    1.420   .     A
C373   H717    1.140   .     S
C374   C377    1.420   .     A
C374   C387    1.420   .     S
C374   H718    1.140   .     S
C375   C380    1.420   .     A
C375   C376    1.420   .     A
C376   C377    1.420   .     A
C377   C378    1.420   .     A
C378   C381    1.420   .     A
C378   C389    1.420   .     S
C379   C384    1.420   .     A
C379   C380    1.420   .     A
C380   C381    1.420   .     A
C381   C382    1.420   .     A
C382   C385    1.420   .     A
C382   C393    1.420   .     S
C383   C384    1.420   .     A
C383   H719    1.140   .     S
C384   C385    1.420   .     A
C385   C386    1.420   .     A
C386   C397    1.420   .     S
C386   H720    1.140   .     S
C387   C390    1.420   .     A
C387   H721    1.140   .     S
C388   C391    1.420   .     A
C388   C401    1.420   .     S
C388   H722    1.140   .     S
C389   C394    1.420   .     A
C389   C390    1.420   .     A
C390   C391    1.420   .     A
C391   C392    1.420   .     A
C392   C395    1.420   .     A
C392   C403    1.420   .     S
C393   C398    1.420   .     A
C393   C394    1.420   .     A
C394   C395    1.420   .     A
C395   C396    1.420   .     A
C396   C399    1.420   .     A
C396   C407    1.420   .     S
C397   C398    1.420   .     A
C397   H723    1.140   .     S
C398   C399    1.420   .     A
C399   C400    1.420   .     A
C400   C411    1.420   .     S
C400   H724    1.140   .     S
C401   C404    1.420   .     A
C401   H725    1.140   .     S
C402   C405    1.420   .     A
C402   C415    1.420   .     S
C402   H726    1.140   .     S
C403   C408    1.420   .     A
C403   C404    1.420   .     A
C404   C405    1.420   .     A
C405   C406    1.420   .     A
C406   C409    1.420   .     A
C406   C417    1.420   .     S
C407   C412    1.420   .     A
C407   C408    1.420   .     A
C408   C409    1.420   .     A
C409   C410    1.420   .     A
C410   C413    1.420   .     A
C410   C421    1.420   .     S
C411   C412    1.420   .     A
C411   H727    1.140   .     S
C412   C413    1.420   .     A
C413   C414    1.420   .     A
C414   C425    1.420   .     S
C414   H728    1.140   .     S
C415   C418    1.420   .     A
C415   H729    1.140   .     S
C416   C419    1.420   .     A
C416   C429    1.420   .     S
C416   H730    1.140   .     S
C417   C422    1.420   .     A
C417   C418    1.420   .     A
C418   C419    1.420   .     A
C419   C420    1.420   .     A
C420   C423    1.420   .     A
C420   C431    1.420   .     S
C421   C426    1.420   .     A
C421   C422    1.420   .     A
C422   C423    1.420   .     A
C423   C424    1.420   .     A
C424   C427    1.420   .     A
C424   C435    1.420   .     S
C425   C426    1.420   .     A
C425   H731    1.140   .     S
C426   C427    1.420   .     A
C427   C428    1.420   .     A
C428   C439    1.420   .     S
C428   H732    1.140   .     S
C429   C432    1.420   .     A
C429   H733    1.140   .     S
C430   C433    1.420   .     A
C430   C443    1.420   .     S
C430   H734    1.140   .     S
C431   C436    1.420   .     A
C431   C432    1.420   .     A
C432   C433    1.420   .     A
C433   C434    1.420   .     A
C434   C437    1.420   .     A
C434   C445    1.420   .     S
C435   C440    1.420   .     A
C435   C436    1.420   .     A
C436   C437    1.420   .     A
C437   C438    1.420   .     A
C438   C441    1.420   .     A
C438   C449    1.420   .     S
C439   C440    1.420   .     A
C439   H735    1.140   .     S
C440   C441    1.420   .     A
C441   C442    1.420   .     A
C442   C453    1.420   .     S
C442   H736    1.140   .     S
C443   C446    1.420   .     A
C443   H737    1.140   .     S
C444   C447    1.420   .     A
C444   C457    1.420   .     S
C444   H738    1.140   .     S
C445   C450    1.420   .     A
C445   C446    1.420   .     A
C446   C447    1.420   .     A
C447   C448    1.420   .     A
C448   C451    1.420   .     A
C448   C459    1.420   .     S
C449   C454    1.420   .     A
C449   C450    1.420   .     A
C450   C451    1.420   .     A
C451   C452    1.420   .     A
C452   C455    1.420   .     A
C452   C463    1.420   .     S
C453   C454    1.420   .     A
C453   H739    1.140   .     S
C454   C455    1.420   .     A
C455   C456    1.420   .     A
C456   C467    1.420   .     S
C456   H740    1.140   .     S
C457   C460    1.420   .     A
C457   H741    1.140   .     S
C458   C461    1.420   .     A
C458   N479    1.420   .     S
C458   H742    1.140   .     S
C459   C464    1.420   .     A
C459   C460    1.420   .     A
C460   C461    1.420   .     A
C461   C462    1.420   .     A
C462   C465    1.420   .     A
C462   N483    1.420   .     S
C463   C468    1.420   .     A
C463   C464    1.420   .     A
C464   C465    1.420   .     A
C465   C466    1.420   .     A
C466   C469    1.420   .     A
C466   N487    1.420   .     S
C467   C468    1.420   .     A
C467   H743    1.140   .     S
C468   C469    1.420   .     A
C469   C470    1.420   .     A
C470   N491    1.420   .     S
C470   H744    1.140   .     S
N471   N476    1.420   .     A
N471   N472    1.420   .     A
N471   H745    1.140   .     S
N472   N473    1.420   .     A
N472   H505    1.140   .     S
N473   N474    1.420   .     A
N473   H506    1.140   .     S
N474   N477    1.420   .     A
N474   N509    1.420   .     S
N475   N480    1.420   .     A
N475   N476    1.420   .     A
N475   H746    1.140   .     S
N476   N477    1.420   .     A
N477   N478    1.420   .     A
N478   N481    1.420   .     A
N478   N513    1.420   .     S
N479   N484    1.420   .     A
N479   N480    1.420   .     A
N480   N481    1.420   .     A
N481   N482    1.420   .     A
N482   N485    1.420   .     A
N482   N517    1.420   .     S
N483   N488    1.420   .     A
N483   N484    1.420   .     A
N484   N485    1.420   .     A
N485   N486    1.420   .     A
N486   N489    1.420   .     A
N486   N521    1.420   .     S
N487   N492    1.420   .     A
N487   N488    1.420   .     A
N488   N489    1.420   .     A
N489   N490    1.420   .     A
N490   N493    1.420   .     A
N490   N525    1.420   .     S
N491   N496    1.420   .     A
N491   N492    1.420   .     A
N492   N493    1.420   .     A
N493   N494    1.420   .     A
N494   N497    1.420   .     A
N494   N529    1.420   .     S
N495   N500    1.420   .     A
N495   N496    1.420   .     A
N495   H747    1.140   .     S
N496   N497    1.420   .     A
N497   N498    1.420   .     A
N498   N501    1.420   .     A
N498   N533    1.420   .     S
N499   N503    1.420   .     A
N499   N500    1.420   .     A
N499   H748    1.140   .     S
N500   N501    1.420   .     A
N501   N502    1.420   .     A
N502   N504    1.420   .     A
N502   N537    1.420   .     S
N503   N504    1.420   .     A
N503   H507    1.140   .     S
N504   H508    1.140   .     S
N509   N514    1.420   .     A
N509   N510    1.420   .     A
N510   N511    1.420   .     A
N510   H543    1.140   .     S
N511   N512    1.420   .     A
N511   H544    1.140   .     S
N512   N515    1.420   .     A
N512   N547    1.420   .     S
N513   N518    1.420   .     A
N513   N514    1.420   .     A
N514   N515    1.420   .     A
N515   N516    1.420   .     A
N516   N519    1.420   .     A
N516   N551    1.420   .     S
N517   N522    1.420   .     A
N517   N518    1.420   .     A
N518   N519    1.420   .     A
N519   N520    1.420   .     A
N520   N523    1.420   .     A
N520   N555    1.420   .     S
N521   N526    1.420   .     A
N521   N522    1.420   .     A
N522   N523    1.420   .     A
N523   N524    1.420   .     A
N524   N527    1.420   .     A
N524   N559    1.420   .     S
N525   N530    1.420   .     A
N525   N526    1.420   .     A
N526   N527    1.420   .     A
N527   N528    1.420   .     A
N528   N531    1.420   .     A
N528   N563    1.420   .     S
N529   N534    1.420   .     A
N529   N530    1.420   .     A
N530   N531    1.420   .     A
N531   N532    1.420   .     A
N532   N535    1.420   .     A
N532   N567    1.420   .     S
N533   N538    1.420   .     A
N533   N534    1.420   .     A
N534   N535    1.420   .     A
N535   N536    1.420   .     A
N536   N539    1.420   .     A
N536   N571    1.420   .     S
N537   N541    1.420   .     A
N537   N538    1.420   .     A
N538   N539    1.420   .     A
N539   N540    1.420   .     A
N540   N542    1.420   .     A
N540   N575    1.420   .     S
N541   N542    1.420   .     A
N541   H545    1.140   .     S
N542   H546    1.140   .     S
N547   N552    1.420   .     A
N547   N548    1.420   .     A
N548   N549    1.420   .     A
N548   H581    1.140   .     S
N549   N550    1.420   .     A
N549   H582    1.140   .     S
N550   N553    1.420   .     A
N550   N585    1.420   .     S
N551   N556    1.420   .     A
N551   N552    1.420   .     A
N552   N553    1.420   .     A
N553   N554    1.420   .     A
N554   N557    1.420   .     A
N554   N589    1.420   .     S
N555   N560    1.420   .     A
N555   N556    1.420   .     A
N556   N557    1.420   .     A
N557   N558    1.420   .     A
N558   N561    1.420   .     A
N558   N593    1.420   .     S
N559   N564    1.420   .     A
N559   N560    1.420   .     A
N560   N561    1.420   .     A
N561   N562    1.420   .     A
N562   N565    1.420   .     A
N562   N597    1.420   .     S
N563   N568    1.420   .     A
N563   N564    1.420   .     A
N564   N565    1.420   .     A
N565   N566    1.420   .     A
N566   N569    1.420   .     A
N566   N601    1.420   .     S
N567   N572    1.420   .     A
N567   N568    1.420   .     A
N568   N569    1.420   .     A
N569   N570    1.420   .     A
N570   N573    1.420   .     A
N570   N605    1.420   .     S
N571   N576    1.420   .     A
N571   N572    1.420   .     A
N572   N573    1.420   .     A
N573   N574    1.420   .     A
N574   N577    1.420   .     A
N574   N609    1.420   .     S
N575   N579    1.420   .     A
N575   N576    1.420   .     A
N576   N577    1.420   .     A
N577   N578    1.420   .     A
N578   N580    1.420   .     A
N578   N613    1.420   .     S
N579   N580    1.420   .     A
N579   H583    1.140   .     S
N580   H584    1.140   .     S
N585   N590    1.420   .     A
N585   N586    1.420   .     A
N586   N587    1.420   .     A
N586   H619    1.140   .     S
N587   N588    1.420   .     A
N587   H620    1.140   .     S
N588   N591    1.420   .     A
N588   N623    1.420   .     S
N589   N594    1.420   .     A
N589   N590    1.420   .     A
N590   N591    1.420   .     A
N591   N592    1.420   .     A
N592   N595    1.420   .     A
N592   N627    1.420   .     S
N593   N598    1.420   .     A
N593   N594    1.420   .     A
N594   N595    1.420   .     A
N595   N596    1.420   .     A
N596   N599    1.420   .     A
N596   N631    1.420   .     S
N597   N602    1.420   .     A
N597   N598    1.420   .     A
N598   N599    1.420   .     A
N599   N600    1.420   .     A
N600   N603    1.420   .     A
N600   N635    1.420   .     S
N601   N606    1.420   .     A
N601   N602    1.420   .     A
N602   N603    1.420   .     A
N603   N604    1.420   .     A
N604   N607    1.420   .     A
N604   N639    1.420   .     S
N605   N610    1.420   .     A
N605   N606    1.420   .     A
N606   N607    1.420   .     A
N607   N608    1.420   .     A
N608   N611    1.420   .     A
N608   N643    1.420   .     S
N609   N614    1.420   .     A
N609   N610    1.420   .     A
N610   N611    1.420   .     A
N611   N612    1.420   .     A
N612   N615    1.420   .     A
N612   N647    1.420   .     S
N613   N617    1.420   .     A
N613   N614    1.420   .     A
N614   N615    1.420   .     A
N615   N616    1.420   .     A
N616   N618    1.420   .     A
N616   N651    1.420   .     S
N617   N618    1.420   .     A
N617   H621    1.140   .     S
N618   H622    1.140   .     S
N623   N628    1.420   .     A
N623   N624    1.420   .     A
N624   N625    1.420   .     A
N624   H657    1.140   .     S
N625   N626    1.420   .     A
N625   H658    1.140   .     S
N626   N629    1.420   .     A
N626   N1      1.420   1_565 S
N627   N632    1.420   .     A
N627   N628    1.420   .     A
N628   N629    1.420   .     A
N629   N630    1.420   .     A
N630   N633    1.420   .     A
N630   N5      1.420   1_565 S
N631   N636    1.420   .     A
N631   N632    1.420   .     A
N632   N633    1.420   .     A
N633   N634    1.420   .     A
N634   N637    1.420   .     A
N634   N9      1.420   1_565 S
N635   N640    1.420   .     A
N635   N636    1.420   .     A
N636   N637    1.420   .     A
N637   N638    1.420   .     A
N638   N641    1.420   .     A
N638   N13     1.420   1_565 S
N639   N644    1.420   .     A
N639   N640    1.420   .     A
N640   N641    1.420   .     A
N641   N642    1.420   .     A
N642   N645    1.420   .     A
N642   N17     1.420   1_565 S
N643   N648    1.420   .     A
N643   N644    1.420   .     A
N644   N645    1.420   .     A
N645   N646    1.420   .     A
N646   N649    1.420   .     A
N646   N21     1.420   1_565 S
N647   N652    1.420   .     A
N647   N648    1.420   .     A
N648   N649    1.420   .     A
N649   N650    1.420   .     A
N650   N653    1.420   .     A
N650   N25     1.420   1_565 S
N651   N655    1.420   .     A
N651   N652    1.420   .     A
N652   N653    1.420   .     A
N653   N654    1.420   .     A
N654   N656    1.420   .     A
N654   N29     1.420   1_565 S
N655   N656    1.420   .     A
N655   H659    1.140   .     S
N656   H660    1.140   .     S
