data_17112005
_audit_creation_date              2020-04-13
_audit_creation_method            'Materials Studio'
_symmetry_space_group_name_H-M    'P1'
_symmetry_Int_Tables_number       1
_symmetry_cell_setting            triclinic
loop_
_symmetry_equiv_pos_as_xyz
  x,y,z
_cell_length_a                    40.0000
_cell_length_b                    127.8253
_cell_length_c                    10.0000
_cell_angle_alpha                 90.0000
_cell_angle_beta                  90.0000
_cell_angle_gamma                 90.0000
loop_
_atom_site_label
_atom_site_type_symbol
_atom_site_fract_x
_atom_site_fract_y
_atom_site_fract_z
_atom_site_U_iso_or_equiv
_atom_site_adp_type
_atom_site_occupancy
N1     N     0.28474   0.00558   0.50000   0.00000  Uiso   1.00
N2     N     0.25399   0.01114   0.50000   0.00000  Uiso   1.00
N3     N     0.25399   0.02225   0.50000   0.00000  Uiso   1.00
N4     N     0.28474   0.02780   0.50000   0.00000  Uiso   1.00
N5     N     0.34624   0.00558   0.50000   0.00000  Uiso   1.00
N6     N     0.31549   0.01114   0.50000   0.00000  Uiso   1.00
N7     N     0.31549   0.02225   0.50000   0.00000  Uiso   1.00
N8     N     0.34624   0.02780   0.50000   0.00000  Uiso   1.00
N9     N     0.40774   0.00558   0.50000   0.00000  Uiso   1.00
N10    N     0.37699   0.01114   0.50000   0.00000  Uiso   1.00
N11    N     0.37699   0.02225   0.50000   0.00000  Uiso   1.00
N12    N     0.40774   0.02780   0.50000   0.00000  Uiso   1.00
N13    N     0.46924   0.00558   0.50000   0.00000  Uiso   1.00
N14    N     0.43849   0.01114   0.50000   0.00000  Uiso   1.00
N15    N     0.43849   0.02225   0.50000   0.00000  Uiso   1.00
N16    N     0.46924   0.02780   0.50000   0.00000  Uiso   1.00
N17    N     0.53074   0.00558   0.50000   0.00000  Uiso   1.00
N18    N     0.49999   0.01114   0.50000   0.00000  Uiso   1.00
N19    N     0.49999   0.02225   0.50000   0.00000  Uiso   1.00
N20    N     0.53074   0.02780   0.50000   0.00000  Uiso   1.00
N21    N     0.59224   0.00558   0.50000   0.00000  Uiso   1.00
N22    N     0.56149   0.01114   0.50000   0.00000  Uiso   1.00
N23    N     0.56149   0.02225   0.50000   0.00000  Uiso   1.00
N24    N     0.59224   0.02780   0.50000   0.00000  Uiso   1.00
N25    N     0.65374   0.00558   0.50000   0.00000  Uiso   1.00
N26    N     0.62299   0.01114   0.50000   0.00000  Uiso   1.00
N27    N     0.62299   0.02225   0.50000   0.00000  Uiso   1.00
N28    N     0.65374   0.02780   0.50000   0.00000  Uiso   1.00
N29    N     0.71524   0.00558   0.50000   0.00000  Uiso   1.00
N30    N     0.68449   0.01114   0.50000   0.00000  Uiso   1.00
N31    N     0.68449   0.02225   0.50000   0.00000  Uiso   1.00
N32    N     0.71524   0.02780   0.50000   0.00000  Uiso   1.00
N33    N     0.74599   0.01114   0.50000   0.00000  Uiso   1.00
N34    N     0.74599   0.02225   0.50000   0.00000  Uiso   1.00
H35    H     0.22931   0.00668   0.50000   0.00000  Uiso   1.00
H36    H     0.22931   0.02671   0.50000   0.00000  Uiso   1.00
H37    H     0.77067   0.00668   0.50000   0.00000  Uiso   1.00
H38    H     0.77067   0.02671   0.50000   0.00000  Uiso   1.00
N39    N     0.28474   0.03892   0.50000   0.00000  Uiso   1.00
N40    N     0.25399   0.04447   0.50000   0.00000  Uiso   1.00
N41    N     0.25399   0.05558   0.50000   0.00000  Uiso   1.00
N42    N     0.28474   0.06114   0.50000   0.00000  Uiso   1.00
N43    N     0.34624   0.03892   0.50000   0.00000  Uiso   1.00
N44    N     0.31549   0.04447   0.50000   0.00000  Uiso   1.00
N45    N     0.31549   0.05558   0.50000   0.00000  Uiso   1.00
N46    N     0.34624   0.06114   0.50000   0.00000  Uiso   1.00
N47    N     0.40774   0.03892   0.50000   0.00000  Uiso   1.00
N48    N     0.37699   0.04447   0.50000   0.00000  Uiso   1.00
N49    N     0.37699   0.05558   0.50000   0.00000  Uiso   1.00
N50    N     0.40774   0.06114   0.50000   0.00000  Uiso   1.00
N51    N     0.46924   0.03892   0.50000   0.00000  Uiso   1.00
N52    N     0.43849   0.04447   0.50000   0.00000  Uiso   1.00
N53    N     0.43849   0.05558   0.50000   0.00000  Uiso   1.00
N54    N     0.46924   0.06114   0.50000   0.00000  Uiso   1.00
N55    N     0.53074   0.03892   0.50000   0.00000  Uiso   1.00
N56    N     0.49999   0.04447   0.50000   0.00000  Uiso   1.00
N57    N     0.49999   0.05558   0.50000   0.00000  Uiso   1.00
N58    N     0.53074   0.06114   0.50000   0.00000  Uiso   1.00
N59    N     0.59224   0.03892   0.50000   0.00000  Uiso   1.00
N60    N     0.56149   0.04447   0.50000   0.00000  Uiso   1.00
N61    N     0.56149   0.05558   0.50000   0.00000  Uiso   1.00
N62    N     0.59224   0.06114   0.50000   0.00000  Uiso   1.00
N63    N     0.65374   0.03892   0.50000   0.00000  Uiso   1.00
N64    N     0.62299   0.04447   0.50000   0.00000  Uiso   1.00
N65    N     0.62299   0.05558   0.50000   0.00000  Uiso   1.00
N66    N     0.65374   0.06114   0.50000   0.00000  Uiso   1.00
N67    N     0.71524   0.03892   0.50000   0.00000  Uiso   1.00
N68    N     0.68449   0.04447   0.50000   0.00000  Uiso   1.00
N69    N     0.68449   0.05558   0.50000   0.00000  Uiso   1.00
N70    N     0.71524   0.06114   0.50000   0.00000  Uiso   1.00
N71    N     0.74599   0.04447   0.50000   0.00000  Uiso   1.00
N72    N     0.74599   0.05558   0.50000   0.00000  Uiso   1.00
H73    H     0.22931   0.04001   0.50000   0.00000  Uiso   1.00
H74    H     0.22931   0.06004   0.50000   0.00000  Uiso   1.00
H75    H     0.77067   0.04001   0.50000   0.00000  Uiso   1.00
H76    H     0.77067   0.06004   0.50000   0.00000  Uiso   1.00
N77    N     0.28474   0.07225   0.50000   0.00000  Uiso   1.00
N78    N     0.25399   0.07780   0.50000   0.00000  Uiso   1.00
N79    N     0.25399   0.08892   0.50000   0.00000  Uiso   1.00
N80    N     0.28474   0.09447   0.50000   0.00000  Uiso   1.00
N81    N     0.34624   0.07225   0.50000   0.00000  Uiso   1.00
N82    N     0.31549   0.07780   0.50000   0.00000  Uiso   1.00
N83    N     0.31549   0.08892   0.50000   0.00000  Uiso   1.00
N84    N     0.34624   0.09447   0.50000   0.00000  Uiso   1.00
N85    N     0.40774   0.07225   0.50000   0.00000  Uiso   1.00
N86    N     0.37699   0.07780   0.50000   0.00000  Uiso   1.00
N87    N     0.37699   0.08892   0.50000   0.00000  Uiso   1.00
N88    N     0.40774   0.09447   0.50000   0.00000  Uiso   1.00
N89    N     0.46924   0.07225   0.50000   0.00000  Uiso   1.00
N90    N     0.43849   0.07780   0.50000   0.00000  Uiso   1.00
N91    N     0.43849   0.08892   0.50000   0.00000  Uiso   1.00
N92    N     0.46924   0.09447   0.50000   0.00000  Uiso   1.00
N93    N     0.53074   0.07225   0.50000   0.00000  Uiso   1.00
N94    N     0.49999   0.07780   0.50000   0.00000  Uiso   1.00
N95    N     0.49999   0.08892   0.50000   0.00000  Uiso   1.00
N96    N     0.53074   0.09447   0.50000   0.00000  Uiso   1.00
N97    N     0.59224   0.07225   0.50000   0.00000  Uiso   1.00
N98    N     0.56149   0.07780   0.50000   0.00000  Uiso   1.00
N99    N     0.56149   0.08892   0.50000   0.00000  Uiso   1.00
N100   N     0.59224   0.09447   0.50000   0.00000  Uiso   1.00
N101   N     0.65374   0.07225   0.50000   0.00000  Uiso   1.00
N102   N     0.62299   0.07780   0.50000   0.00000  Uiso   1.00
N103   N     0.62299   0.08892   0.50000   0.00000  Uiso   1.00
N104   N     0.65374   0.09447   0.50000   0.00000  Uiso   1.00
N105   N     0.71524   0.07225   0.50000   0.00000  Uiso   1.00
N106   N     0.68449   0.07780   0.50000   0.00000  Uiso   1.00
N107   N     0.68449   0.08892   0.50000   0.00000  Uiso   1.00
N108   N     0.71524   0.09447   0.50000   0.00000  Uiso   1.00
N109   N     0.74599   0.07780   0.50000   0.00000  Uiso   1.00
N110   N     0.74599   0.08892   0.50000   0.00000  Uiso   1.00
H111   H     0.22931   0.07335   0.50000   0.00000  Uiso   1.00
H112   H     0.22931   0.09337   0.50000   0.00000  Uiso   1.00
H113   H     0.77067   0.07335   0.50000   0.00000  Uiso   1.00
H114   H     0.77067   0.09337   0.50000   0.00000  Uiso   1.00
N115   N     0.28474   0.10558   0.50000   0.00000  Uiso   1.00
N116   N     0.25399   0.11114   0.50000   0.00000  Uiso   1.00
N117   N     0.25399   0.12225   0.50000   0.00000  Uiso   1.00
N118   N     0.28474   0.12780   0.50000   0.00000  Uiso   1.00
N119   N     0.34624   0.10558   0.50000   0.00000  Uiso   1.00
N120   N     0.31549   0.11114   0.50000   0.00000  Uiso   1.00
N121   N     0.31549   0.12225   0.50000   0.00000  Uiso   1.00
N122   N     0.34624   0.12780   0.50000   0.00000  Uiso   1.00
N123   N     0.40774   0.10558   0.50000   0.00000  Uiso   1.00
N124   N     0.37699   0.11114   0.50000   0.00000  Uiso   1.00
N125   N     0.37699   0.12225   0.50000   0.00000  Uiso   1.00
N126   N     0.40774   0.12780   0.50000   0.00000  Uiso   1.00
N127   N     0.46924   0.10558   0.50000   0.00000  Uiso   1.00
N128   N     0.43849   0.11114   0.50000   0.00000  Uiso   1.00
N129   N     0.43849   0.12225   0.50000   0.00000  Uiso   1.00
N130   N     0.46924   0.12780   0.50000   0.00000  Uiso   1.00
N131   N     0.53074   0.10558   0.50000   0.00000  Uiso   1.00
N132   N     0.49999   0.11114   0.50000   0.00000  Uiso   1.00
N133   N     0.49999   0.12225   0.50000   0.00000  Uiso   1.00
N134   N     0.53074   0.12780   0.50000   0.00000  Uiso   1.00
N135   N     0.59224   0.10558   0.50000   0.00000  Uiso   1.00
N136   N     0.56149   0.11114   0.50000   0.00000  Uiso   1.00
N137   N     0.56149   0.12225   0.50000   0.00000  Uiso   1.00
N138   N     0.59224   0.12780   0.50000   0.00000  Uiso   1.00
N139   N     0.65374   0.10558   0.50000   0.00000  Uiso   1.00
N140   N     0.62299   0.11114   0.50000   0.00000  Uiso   1.00
N141   N     0.62299   0.12225   0.50000   0.00000  Uiso   1.00
N142   N     0.65374   0.12780   0.50000   0.00000  Uiso   1.00
N143   N     0.71524   0.10558   0.50000   0.00000  Uiso   1.00
N144   N     0.68449   0.11114   0.50000   0.00000  Uiso   1.00
N145   N     0.68449   0.12225   0.50000   0.00000  Uiso   1.00
N146   N     0.71524   0.12780   0.50000   0.00000  Uiso   1.00
N147   N     0.74599   0.11114   0.50000   0.00000  Uiso   1.00
N148   N     0.74599   0.12225   0.50000   0.00000  Uiso   1.00
H149   H     0.22931   0.10668   0.50000   0.00000  Uiso   1.00
H150   H     0.22931   0.12671   0.50000   0.00000  Uiso   1.00
H151   H     0.77067   0.10668   0.50000   0.00000  Uiso   1.00
H152   H     0.77067   0.12671   0.50000   0.00000  Uiso   1.00
N153   N     0.28474   0.13892   0.50000   0.00000  Uiso   1.00
N154   N     0.25399   0.14447   0.50000   0.00000  Uiso   1.00
N155   N     0.25399   0.15558   0.50000   0.00000  Uiso   1.00
N156   N     0.28474   0.16114   0.50000   0.00000  Uiso   1.00
N157   N     0.34624   0.13892   0.50000   0.00000  Uiso   1.00
N158   N     0.31549   0.14447   0.50000   0.00000  Uiso   1.00
N159   N     0.31549   0.15558   0.50000   0.00000  Uiso   1.00
N160   N     0.34624   0.16114   0.50000   0.00000  Uiso   1.00
N161   N     0.40774   0.13892   0.50000   0.00000  Uiso   1.00
N162   N     0.37699   0.14447   0.50000   0.00000  Uiso   1.00
N163   N     0.37699   0.15558   0.50000   0.00000  Uiso   1.00
N164   N     0.40774   0.16114   0.50000   0.00000  Uiso   1.00
N165   N     0.46924   0.13892   0.50000   0.00000  Uiso   1.00
N166   N     0.43849   0.14447   0.50000   0.00000  Uiso   1.00
N167   N     0.43849   0.15558   0.50000   0.00000  Uiso   1.00
N168   N     0.46924   0.16114   0.50000   0.00000  Uiso   1.00
N169   N     0.53074   0.13892   0.50000   0.00000  Uiso   1.00
N170   N     0.49999   0.14447   0.50000   0.00000  Uiso   1.00
N171   N     0.49999   0.15558   0.50000   0.00000  Uiso   1.00
N172   N     0.53074   0.16114   0.50000   0.00000  Uiso   1.00
N173   N     0.59224   0.13892   0.50000   0.00000  Uiso   1.00
N174   N     0.56149   0.14447   0.50000   0.00000  Uiso   1.00
N175   N     0.56149   0.15558   0.50000   0.00000  Uiso   1.00
N176   N     0.59224   0.16114   0.50000   0.00000  Uiso   1.00
N177   N     0.65374   0.13892   0.50000   0.00000  Uiso   1.00
N178   N     0.62299   0.14447   0.50000   0.00000  Uiso   1.00
N179   N     0.62299   0.15558   0.50000   0.00000  Uiso   1.00
N180   N     0.65374   0.16114   0.50000   0.00000  Uiso   1.00
N181   N     0.71524   0.13892   0.50000   0.00000  Uiso   1.00
N182   N     0.68449   0.14447   0.50000   0.00000  Uiso   1.00
N183   N     0.68449   0.15558   0.50000   0.00000  Uiso   1.00
N184   N     0.71524   0.16114   0.50000   0.00000  Uiso   1.00
N185   N     0.74599   0.14447   0.50000   0.00000  Uiso   1.00
N186   N     0.74599   0.15558   0.50000   0.00000  Uiso   1.00
H187   H     0.22931   0.14001   0.50000   0.00000  Uiso   1.00
H188   H     0.22931   0.16004   0.50000   0.00000  Uiso   1.00
H189   H     0.77067   0.14001   0.50000   0.00000  Uiso   1.00
H190   H     0.77067   0.16004   0.50000   0.00000  Uiso   1.00
C191   C     0.34624   0.17225   0.50000   0.00000  Uiso   1.00
C192   C     0.34624   0.19447   0.50000   0.00000  Uiso   1.00
C193   C     0.40774   0.17225   0.50000   0.00000  Uiso   1.00
C194   C     0.37699   0.17780   0.50000   0.00000  Uiso   1.00
C195   C     0.37699   0.18892   0.50000   0.00000  Uiso   1.00
C196   C     0.40774   0.19447   0.50000   0.00000  Uiso   1.00
C197   C     0.46924   0.17225   0.50000   0.00000  Uiso   1.00
C198   C     0.43849   0.17780   0.50000   0.00000  Uiso   1.00
C199   C     0.43849   0.18892   0.50000   0.00000  Uiso   1.00
C200   C     0.46924   0.19447   0.50000   0.00000  Uiso   1.00
C201   C     0.53074   0.17225   0.50000   0.00000  Uiso   1.00
C202   C     0.49999   0.17780   0.50000   0.00000  Uiso   1.00
C203   C     0.49999   0.18892   0.50000   0.00000  Uiso   1.00
C204   C     0.53074   0.19447   0.50000   0.00000  Uiso   1.00
C205   C     0.59224   0.17225   0.50000   0.00000  Uiso   1.00
C206   C     0.56149   0.17780   0.50000   0.00000  Uiso   1.00
C207   C     0.56149   0.18892   0.50000   0.00000  Uiso   1.00
C208   C     0.59224   0.19447   0.50000   0.00000  Uiso   1.00
C209   C     0.65374   0.17225   0.50000   0.00000  Uiso   1.00
C210   C     0.62299   0.17780   0.50000   0.00000  Uiso   1.00
C211   C     0.62299   0.18892   0.50000   0.00000  Uiso   1.00
C212   C     0.65374   0.19447   0.50000   0.00000  Uiso   1.00
C213   C     0.34624   0.20558   0.50000   0.00000  Uiso   1.00
C214   C     0.34624   0.22780   0.50000   0.00000  Uiso   1.00
C215   C     0.40774   0.20558   0.50000   0.00000  Uiso   1.00
C216   C     0.37699   0.21114   0.50000   0.00000  Uiso   1.00
C217   C     0.37699   0.22225   0.50000   0.00000  Uiso   1.00
C218   C     0.40774   0.22780   0.50000   0.00000  Uiso   1.00
C219   C     0.46924   0.20558   0.50000   0.00000  Uiso   1.00
C220   C     0.43849   0.21114   0.50000   0.00000  Uiso   1.00
C221   C     0.43849   0.22225   0.50000   0.00000  Uiso   1.00
C222   C     0.46924   0.22780   0.50000   0.00000  Uiso   1.00
C223   C     0.53074   0.20558   0.50000   0.00000  Uiso   1.00
C224   C     0.49999   0.21114   0.50000   0.00000  Uiso   1.00
C225   C     0.49999   0.22225   0.50000   0.00000  Uiso   1.00
C226   C     0.53074   0.22780   0.50000   0.00000  Uiso   1.00
C227   C     0.59224   0.20558   0.50000   0.00000  Uiso   1.00
C228   C     0.56149   0.21114   0.50000   0.00000  Uiso   1.00
C229   C     0.56149   0.22225   0.50000   0.00000  Uiso   1.00
C230   C     0.59224   0.22780   0.50000   0.00000  Uiso   1.00
C231   C     0.65374   0.20558   0.50000   0.00000  Uiso   1.00
C232   C     0.62299   0.21114   0.50000   0.00000  Uiso   1.00
C233   C     0.62299   0.22225   0.50000   0.00000  Uiso   1.00
C234   C     0.65374   0.22780   0.50000   0.00000  Uiso   1.00
C235   C     0.34624   0.23892   0.50000   0.00000  Uiso   1.00
C236   C     0.34624   0.26114   0.50000   0.00000  Uiso   1.00
C237   C     0.40774   0.23892   0.50000   0.00000  Uiso   1.00
C238   C     0.37699   0.24447   0.50000   0.00000  Uiso   1.00
C239   C     0.37699   0.25558   0.50000   0.00000  Uiso   1.00
C240   C     0.40774   0.26114   0.50000   0.00000  Uiso   1.00
C241   C     0.46924   0.23892   0.50000   0.00000  Uiso   1.00
C242   C     0.43849   0.24447   0.50000   0.00000  Uiso   1.00
C243   C     0.43849   0.25558   0.50000   0.00000  Uiso   1.00
C244   C     0.46924   0.26114   0.50000   0.00000  Uiso   1.00
C245   C     0.53074   0.23892   0.50000   0.00000  Uiso   1.00
C246   C     0.49999   0.24447   0.50000   0.00000  Uiso   1.00
C247   C     0.49999   0.25558   0.50000   0.00000  Uiso   1.00
C248   C     0.53074   0.26114   0.50000   0.00000  Uiso   1.00
C249   C     0.59224   0.23892   0.50000   0.00000  Uiso   1.00
C250   C     0.56149   0.24447   0.50000   0.00000  Uiso   1.00
C251   C     0.56149   0.25558   0.50000   0.00000  Uiso   1.00
C252   C     0.59224   0.26114   0.50000   0.00000  Uiso   1.00
C253   C     0.65374   0.23892   0.50000   0.00000  Uiso   1.00
C254   C     0.62299   0.24447   0.50000   0.00000  Uiso   1.00
C255   C     0.62299   0.25558   0.50000   0.00000  Uiso   1.00
C256   C     0.65374   0.26114   0.50000   0.00000  Uiso   1.00
C257   C     0.34624   0.27225   0.50000   0.00000  Uiso   1.00
C258   C     0.34624   0.29447   0.50000   0.00000  Uiso   1.00
C259   C     0.40774   0.27225   0.50000   0.00000  Uiso   1.00
C260   C     0.37699   0.27780   0.50000   0.00000  Uiso   1.00
C261   C     0.37699   0.28892   0.50000   0.00000  Uiso   1.00
C262   C     0.40774   0.29447   0.50000   0.00000  Uiso   1.00
C263   C     0.46924   0.27225   0.50000   0.00000  Uiso   1.00
C264   C     0.43849   0.27780   0.50000   0.00000  Uiso   1.00
C265   C     0.43849   0.28892   0.50000   0.00000  Uiso   1.00
C266   C     0.46924   0.29447   0.50000   0.00000  Uiso   1.00
C267   C     0.53074   0.27225   0.50000   0.00000  Uiso   1.00
C268   C     0.49999   0.27780   0.50000   0.00000  Uiso   1.00
C269   C     0.49999   0.28892   0.50000   0.00000  Uiso   1.00
C270   C     0.53074   0.29447   0.50000   0.00000  Uiso   1.00
C271   C     0.59224   0.27225   0.50000   0.00000  Uiso   1.00
C272   C     0.56149   0.27780   0.50000   0.00000  Uiso   1.00
C273   C     0.56149   0.28892   0.50000   0.00000  Uiso   1.00
C274   C     0.59224   0.29447   0.50000   0.00000  Uiso   1.00
C275   C     0.65374   0.27225   0.50000   0.00000  Uiso   1.00
C276   C     0.62299   0.27780   0.50000   0.00000  Uiso   1.00
C277   C     0.62299   0.28892   0.50000   0.00000  Uiso   1.00
C278   C     0.65374   0.29447   0.50000   0.00000  Uiso   1.00
C279   C     0.34624   0.30558   0.50000   0.00000  Uiso   1.00
C280   C     0.34624   0.32780   0.50000   0.00000  Uiso   1.00
C281   C     0.40774   0.30558   0.50000   0.00000  Uiso   1.00
C282   C     0.37699   0.31114   0.50000   0.00000  Uiso   1.00
C283   C     0.37699   0.32225   0.50000   0.00000  Uiso   1.00
C284   C     0.40774   0.32780   0.50000   0.00000  Uiso   1.00
C285   C     0.46924   0.30558   0.50000   0.00000  Uiso   1.00
C286   C     0.43849   0.31114   0.50000   0.00000  Uiso   1.00
C287   C     0.43849   0.32225   0.50000   0.00000  Uiso   1.00
C288   C     0.46924   0.32780   0.50000   0.00000  Uiso   1.00
C289   C     0.53074   0.30558   0.50000   0.00000  Uiso   1.00
C290   C     0.49999   0.31114   0.50000   0.00000  Uiso   1.00
C291   C     0.49999   0.32225   0.50000   0.00000  Uiso   1.00
C292   C     0.53074   0.32780   0.50000   0.00000  Uiso   1.00
C293   C     0.59224   0.30558   0.50000   0.00000  Uiso   1.00
C294   C     0.56149   0.31114   0.50000   0.00000  Uiso   1.00
C295   C     0.56149   0.32225   0.50000   0.00000  Uiso   1.00
C296   C     0.59224   0.32780   0.50000   0.00000  Uiso   1.00
C297   C     0.65374   0.30558   0.50000   0.00000  Uiso   1.00
C298   C     0.62299   0.31114   0.50000   0.00000  Uiso   1.00
C299   C     0.62299   0.32225   0.50000   0.00000  Uiso   1.00
C300   C     0.65374   0.32780   0.50000   0.00000  Uiso   1.00
C301   C     0.34624   0.33892   0.50000   0.00000  Uiso   1.00
C302   C     0.34624   0.36114   0.50000   0.00000  Uiso   1.00
C303   C     0.40774   0.33892   0.50000   0.00000  Uiso   1.00
C304   C     0.37699   0.34447   0.50000   0.00000  Uiso   1.00
C305   C     0.37699   0.35558   0.50000   0.00000  Uiso   1.00
C306   C     0.40774   0.36114   0.50000   0.00000  Uiso   1.00
C307   C     0.46924   0.33892   0.50000   0.00000  Uiso   1.00
C308   C     0.43849   0.34447   0.50000   0.00000  Uiso   1.00
C309   C     0.43849   0.35558   0.50000   0.00000  Uiso   1.00
C310   C     0.46924   0.36114   0.50000   0.00000  Uiso   1.00
C311   C     0.53074   0.33892   0.50000   0.00000  Uiso   1.00
C312   C     0.49999   0.34447   0.50000   0.00000  Uiso   1.00
C313   C     0.49999   0.35558   0.50000   0.00000  Uiso   1.00
C314   C     0.53074   0.36114   0.50000   0.00000  Uiso   1.00
C315   C     0.59224   0.33892   0.50000   0.00000  Uiso   1.00
C316   C     0.56149   0.34447   0.50000   0.00000  Uiso   1.00
C317   C     0.56149   0.35558   0.50000   0.00000  Uiso   1.00
C318   C     0.59224   0.36114   0.50000   0.00000  Uiso   1.00
C319   C     0.65374   0.33892   0.50000   0.00000  Uiso   1.00
C320   C     0.62299   0.34447   0.50000   0.00000  Uiso   1.00
C321   C     0.62299   0.35558   0.50000   0.00000  Uiso   1.00
C322   C     0.65374   0.36114   0.50000   0.00000  Uiso   1.00
C323   C     0.34624   0.37225   0.50000   0.00000  Uiso   1.00
C324   C     0.34624   0.39447   0.50000   0.00000  Uiso   1.00
C325   C     0.40774   0.37225   0.50000   0.00000  Uiso   1.00
C326   C     0.37699   0.37780   0.50000   0.00000  Uiso   1.00
C327   C     0.37699   0.38892   0.50000   0.00000  Uiso   1.00
C328   C     0.40774   0.39447   0.50000   0.00000  Uiso   1.00
C329   C     0.46924   0.37225   0.50000   0.00000  Uiso   1.00
C330   C     0.43849   0.37780   0.50000   0.00000  Uiso   1.00
C331   C     0.43849   0.38892   0.50000   0.00000  Uiso   1.00
C332   C     0.46924   0.39447   0.50000   0.00000  Uiso   1.00
C333   C     0.53074   0.37225   0.50000   0.00000  Uiso   1.00
C334   C     0.49999   0.37780   0.50000   0.00000  Uiso   1.00
C335   C     0.49999   0.38892   0.50000   0.00000  Uiso   1.00
C336   C     0.53074   0.39447   0.50000   0.00000  Uiso   1.00
C337   C     0.59224   0.37225   0.50000   0.00000  Uiso   1.00
C338   C     0.56149   0.37780   0.50000   0.00000  Uiso   1.00
C339   C     0.56149   0.38892   0.50000   0.00000  Uiso   1.00
C340   C     0.59224   0.39447   0.50000   0.00000  Uiso   1.00
C341   C     0.65374   0.37225   0.50000   0.00000  Uiso   1.00
C342   C     0.62299   0.37780   0.50000   0.00000  Uiso   1.00
C343   C     0.62299   0.38892   0.50000   0.00000  Uiso   1.00
C344   C     0.65374   0.39447   0.50000   0.00000  Uiso   1.00
C345   C     0.34624   0.40558   0.50000   0.00000  Uiso   1.00
C346   C     0.34624   0.42780   0.50000   0.00000  Uiso   1.00
C347   C     0.40774   0.40558   0.50000   0.00000  Uiso   1.00
C348   C     0.37699   0.41114   0.50000   0.00000  Uiso   1.00
C349   C     0.37699   0.42225   0.50000   0.00000  Uiso   1.00
C350   C     0.40774   0.42780   0.50000   0.00000  Uiso   1.00
C351   C     0.46924   0.40558   0.50000   0.00000  Uiso   1.00
C352   C     0.43849   0.41114   0.50000   0.00000  Uiso   1.00
C353   C     0.43849   0.42225   0.50000   0.00000  Uiso   1.00
C354   C     0.46924   0.42780   0.50000   0.00000  Uiso   1.00
C355   C     0.53074   0.40558   0.50000   0.00000  Uiso   1.00
C356   C     0.49999   0.41114   0.50000   0.00000  Uiso   1.00
C357   C     0.49999   0.42225   0.50000   0.00000  Uiso   1.00
C358   C     0.53074   0.42780   0.50000   0.00000  Uiso   1.00
C359   C     0.59224   0.40558   0.50000   0.00000  Uiso   1.00
C360   C     0.56149   0.41114   0.50000   0.00000  Uiso   1.00
C361   C     0.56149   0.42225   0.50000   0.00000  Uiso   1.00
C362   C     0.59224   0.42780   0.50000   0.00000  Uiso   1.00
C363   C     0.65374   0.40558   0.50000   0.00000  Uiso   1.00
C364   C     0.62299   0.41114   0.50000   0.00000  Uiso   1.00
C365   C     0.62299   0.42225   0.50000   0.00000  Uiso   1.00
C366   C     0.65374   0.42780   0.50000   0.00000  Uiso   1.00
C367   C     0.34624   0.43892   0.50000   0.00000  Uiso   1.00
C368   C     0.34624   0.46114   0.50000   0.00000  Uiso   1.00
C369   C     0.40774   0.43892   0.50000   0.00000  Uiso   1.00
C370   C     0.37699   0.44447   0.50000   0.00000  Uiso   1.00
C371   C     0.37699   0.45558   0.50000   0.00000  Uiso   1.00
C372   C     0.40774   0.46114   0.50000   0.00000  Uiso   1.00
C373   C     0.46924   0.43892   0.50000   0.00000  Uiso   1.00
C374   C     0.43849   0.44447   0.50000   0.00000  Uiso   1.00
C375   C     0.43849   0.45558   0.50000   0.00000  Uiso   1.00
C376   C     0.46924   0.46114   0.50000   0.00000  Uiso   1.00
C377   C     0.53074   0.43892   0.50000   0.00000  Uiso   1.00
C378   C     0.49999   0.44447   0.50000   0.00000  Uiso   1.00
C379   C     0.49999   0.45558   0.50000   0.00000  Uiso   1.00
C380   C     0.53074   0.46114   0.50000   0.00000  Uiso   1.00
C381   C     0.59224   0.43892   0.50000   0.00000  Uiso   1.00
C382   C     0.56149   0.44447   0.50000   0.00000  Uiso   1.00
C383   C     0.56149   0.45558   0.50000   0.00000  Uiso   1.00
C384   C     0.59224   0.46114   0.50000   0.00000  Uiso   1.00
C385   C     0.65374   0.43892   0.50000   0.00000  Uiso   1.00
C386   C     0.62299   0.44447   0.50000   0.00000  Uiso   1.00
C387   C     0.62299   0.45558   0.50000   0.00000  Uiso   1.00
C388   C     0.65374   0.46114   0.50000   0.00000  Uiso   1.00
C389   C     0.34624   0.47225   0.50000   0.00000  Uiso   1.00
C390   C     0.34624   0.49447   0.50000   0.00000  Uiso   1.00
C391   C     0.40774   0.47225   0.50000   0.00000  Uiso   1.00
C392   C     0.37699   0.47780   0.50000   0.00000  Uiso   1.00
C393   C     0.37699   0.48892   0.50000   0.00000  Uiso   1.00
C394   C     0.40774   0.49447   0.50000   0.00000  Uiso   1.00
C395   C     0.46924   0.47225   0.50000   0.00000  Uiso   1.00
C396   C     0.43849   0.47780   0.50000   0.00000  Uiso   1.00
C397   C     0.43849   0.48892   0.50000   0.00000  Uiso   1.00
C398   C     0.46924   0.49447   0.50000   0.00000  Uiso   1.00
C399   C     0.53074   0.47225   0.50000   0.00000  Uiso   1.00
C400   C     0.49999   0.47780   0.50000   0.00000  Uiso   1.00
C401   C     0.49999   0.48892   0.50000   0.00000  Uiso   1.00
C402   C     0.53074   0.49447   0.50000   0.00000  Uiso   1.00
C403   C     0.59224   0.47225   0.50000   0.00000  Uiso   1.00
C404   C     0.56149   0.47780   0.50000   0.00000  Uiso   1.00
C405   C     0.56149   0.48892   0.50000   0.00000  Uiso   1.00
C406   C     0.59224   0.49447   0.50000   0.00000  Uiso   1.00
C407   C     0.65374   0.47225   0.50000   0.00000  Uiso   1.00
C408   C     0.62299   0.47780   0.50000   0.00000  Uiso   1.00
C409   C     0.62299   0.48892   0.50000   0.00000  Uiso   1.00
C410   C     0.65374   0.49447   0.50000   0.00000  Uiso   1.00
C411   C     0.34624   0.50558   0.50000   0.00000  Uiso   1.00
C412   C     0.34624   0.52780   0.50000   0.00000  Uiso   1.00
C413   C     0.40774   0.50558   0.50000   0.00000  Uiso   1.00
C414   C     0.37699   0.51114   0.50000   0.00000  Uiso   1.00
C415   C     0.37699   0.52225   0.50000   0.00000  Uiso   1.00
C416   C     0.40774   0.52780   0.50000   0.00000  Uiso   1.00
C417   C     0.46924   0.50558   0.50000   0.00000  Uiso   1.00
C418   C     0.43849   0.51114   0.50000   0.00000  Uiso   1.00
C419   C     0.43849   0.52225   0.50000   0.00000  Uiso   1.00
C420   C     0.46924   0.52780   0.50000   0.00000  Uiso   1.00
C421   C     0.53074   0.50558   0.50000   0.00000  Uiso   1.00
C422   C     0.49999   0.51114   0.50000   0.00000  Uiso   1.00
C423   C     0.49999   0.52225   0.50000   0.00000  Uiso   1.00
C424   C     0.53074   0.52780   0.50000   0.00000  Uiso   1.00
C425   C     0.59224   0.50558   0.50000   0.00000  Uiso   1.00
C426   C     0.56149   0.51114   0.50000   0.00000  Uiso   1.00
C427   C     0.56149   0.52225   0.50000   0.00000  Uiso   1.00
C428   C     0.59224   0.52780   0.50000   0.00000  Uiso   1.00
C429   C     0.65374   0.50558   0.50000   0.00000  Uiso   1.00
C430   C     0.62299   0.51114   0.50000   0.00000  Uiso   1.00
C431   C     0.62299   0.52225   0.50000   0.00000  Uiso   1.00
C432   C     0.65374   0.52780   0.50000   0.00000  Uiso   1.00
C433   C     0.34624   0.53892   0.50000   0.00000  Uiso   1.00
C434   C     0.34624   0.56114   0.50000   0.00000  Uiso   1.00
C435   C     0.40774   0.53892   0.50000   0.00000  Uiso   1.00
C436   C     0.37699   0.54447   0.50000   0.00000  Uiso   1.00
C437   C     0.37699   0.55558   0.50000   0.00000  Uiso   1.00
C438   C     0.40774   0.56114   0.50000   0.00000  Uiso   1.00
C439   C     0.46924   0.53892   0.50000   0.00000  Uiso   1.00
C440   C     0.43849   0.54447   0.50000   0.00000  Uiso   1.00
C441   C     0.43849   0.55558   0.50000   0.00000  Uiso   1.00
C442   C     0.46924   0.56114   0.50000   0.00000  Uiso   1.00
C443   C     0.53074   0.53892   0.50000   0.00000  Uiso   1.00
C444   C     0.49999   0.54447   0.50000   0.00000  Uiso   1.00
C445   C     0.49999   0.55558   0.50000   0.00000  Uiso   1.00
C446   C     0.53074   0.56114   0.50000   0.00000  Uiso   1.00
C447   C     0.59224   0.53892   0.50000   0.00000  Uiso   1.00
C448   C     0.56149   0.54447   0.50000   0.00000  Uiso   1.00
C449   C     0.56149   0.55558   0.50000   0.00000  Uiso   1.00
C450   C     0.59224   0.56114   0.50000   0.00000  Uiso   1.00
C451   C     0.65374   0.53892   0.50000   0.00000  Uiso   1.00
C452   C     0.62299   0.54447   0.50000   0.00000  Uiso   1.00
C453   C     0.62299   0.55558   0.50000   0.00000  Uiso   1.00
C454   C     0.65374   0.56114   0.50000   0.00000  Uiso   1.00
C455   C     0.34624   0.57225   0.50000   0.00000  Uiso   1.00
C456   C     0.34624   0.59447   0.50000   0.00000  Uiso   1.00
C457   C     0.40774   0.57225   0.50000   0.00000  Uiso   1.00
C458   C     0.37699   0.57780   0.50000   0.00000  Uiso   1.00
C459   C     0.37699   0.58892   0.50000   0.00000  Uiso   1.00
C460   C     0.40774   0.59447   0.50000   0.00000  Uiso   1.00
C461   C     0.46924   0.57225   0.50000   0.00000  Uiso   1.00
C462   C     0.43849   0.57780   0.50000   0.00000  Uiso   1.00
C463   C     0.43849   0.58892   0.50000   0.00000  Uiso   1.00
C464   C     0.46924   0.59447   0.50000   0.00000  Uiso   1.00
C465   C     0.53074   0.57225   0.50000   0.00000  Uiso   1.00
C466   C     0.49999   0.57780   0.50000   0.00000  Uiso   1.00
C467   C     0.49999   0.58892   0.50000   0.00000  Uiso   1.00
C468   C     0.53074   0.59447   0.50000   0.00000  Uiso   1.00
C469   C     0.59224   0.57225   0.50000   0.00000  Uiso   1.00
C470   C     0.56149   0.57780   0.50000   0.00000  Uiso   1.00
C471   C     0.56149   0.58892   0.50000   0.00000  Uiso   1.00
C472   C     0.59224   0.59447   0.50000   0.00000  Uiso   1.00
C473   C     0.65374   0.57225   0.50000   0.00000  Uiso   1.00
C474   C     0.62299   0.57780   0.50000   0.00000  Uiso   1.00
C475   C     0.62299   0.58892   0.50000   0.00000  Uiso   1.00
C476   C     0.65374   0.59447   0.50000   0.00000  Uiso   1.00
C477   C     0.34624   0.60558   0.50000   0.00000  Uiso   1.00
C478   C     0.34624   0.62780   0.50000   0.00000  Uiso   1.00
C479   C     0.40774   0.60558   0.50000   0.00000  Uiso   1.00
C480   C     0.37699   0.61114   0.50000   0.00000  Uiso   1.00
C481   C     0.37699   0.62225   0.50000   0.00000  Uiso   1.00
C482   C     0.40774   0.62780   0.50000   0.00000  Uiso   1.00
C483   C     0.46924   0.60558   0.50000   0.00000  Uiso   1.00
C484   C     0.43849   0.61114   0.50000   0.00000  Uiso   1.00
C485   C     0.43849   0.62225   0.50000   0.00000  Uiso   1.00
C486   C     0.46924   0.62780   0.50000   0.00000  Uiso   1.00
C487   C     0.53074   0.60558   0.50000   0.00000  Uiso   1.00
C488   C     0.49999   0.61114   0.50000   0.00000  Uiso   1.00
C489   C     0.49999   0.62225   0.50000   0.00000  Uiso   1.00
C490   C     0.53074   0.62780   0.50000   0.00000  Uiso   1.00
C491   C     0.59224   0.60558   0.50000   0.00000  Uiso   1.00
C492   C     0.56149   0.61114   0.50000   0.00000  Uiso   1.00
C493   C     0.56149   0.62225   0.50000   0.00000  Uiso   1.00
C494   C     0.59224   0.62780   0.50000   0.00000  Uiso   1.00
C495   C     0.65374   0.60558   0.50000   0.00000  Uiso   1.00
C496   C     0.62299   0.61114   0.50000   0.00000  Uiso   1.00
C497   C     0.62299   0.62225   0.50000   0.00000  Uiso   1.00
C498   C     0.65374   0.62780   0.50000   0.00000  Uiso   1.00
C499   C     0.34624   0.63892   0.50000   0.00000  Uiso   1.00
C500   C     0.34624   0.66114   0.50000   0.00000  Uiso   1.00
C501   C     0.40774   0.63892   0.50000   0.00000  Uiso   1.00
C502   C     0.37699   0.64447   0.50000   0.00000  Uiso   1.00
C503   C     0.37699   0.65558   0.50000   0.00000  Uiso   1.00
C504   C     0.40774   0.66114   0.50000   0.00000  Uiso   1.00
C505   C     0.46924   0.63892   0.50000   0.00000  Uiso   1.00
C506   C     0.43849   0.64447   0.50000   0.00000  Uiso   1.00
C507   C     0.43849   0.65558   0.50000   0.00000  Uiso   1.00
C508   C     0.46924   0.66114   0.50000   0.00000  Uiso   1.00
C509   C     0.53074   0.63892   0.50000   0.00000  Uiso   1.00
C510   C     0.49999   0.64447   0.50000   0.00000  Uiso   1.00
C511   C     0.49999   0.65558   0.50000   0.00000  Uiso   1.00
C512   C     0.53074   0.66114   0.50000   0.00000  Uiso   1.00
C513   C     0.59224   0.63892   0.50000   0.00000  Uiso   1.00
C514   C     0.56149   0.64447   0.50000   0.00000  Uiso   1.00
C515   C     0.56149   0.65558   0.50000   0.00000  Uiso   1.00
C516   C     0.59224   0.66114   0.50000   0.00000  Uiso   1.00
C517   C     0.65374   0.63892   0.50000   0.00000  Uiso   1.00
C518   C     0.62299   0.64447   0.50000   0.00000  Uiso   1.00
C519   C     0.62299   0.65558   0.50000   0.00000  Uiso   1.00
C520   C     0.65374   0.66114   0.50000   0.00000  Uiso   1.00
C521   C     0.34624   0.67225   0.50000   0.00000  Uiso   1.00
C522   C     0.34624   0.69447   0.50000   0.00000  Uiso   1.00
C523   C     0.40774   0.67225   0.50000   0.00000  Uiso   1.00
C524   C     0.37699   0.67780   0.50000   0.00000  Uiso   1.00
C525   C     0.37699   0.68892   0.50000   0.00000  Uiso   1.00
C526   C     0.40774   0.69447   0.50000   0.00000  Uiso   1.00
C527   C     0.46924   0.67225   0.50000   0.00000  Uiso   1.00
C528   C     0.43849   0.67780   0.50000   0.00000  Uiso   1.00
C529   C     0.43849   0.68892   0.50000   0.00000  Uiso   1.00
C530   C     0.46924   0.69447   0.50000   0.00000  Uiso   1.00
C531   C     0.53074   0.67225   0.50000   0.00000  Uiso   1.00
C532   C     0.49999   0.67780   0.50000   0.00000  Uiso   1.00
C533   C     0.49999   0.68892   0.50000   0.00000  Uiso   1.00
C534   C     0.53074   0.69447   0.50000   0.00000  Uiso   1.00
C535   C     0.59224   0.67225   0.50000   0.00000  Uiso   1.00
C536   C     0.56149   0.67780   0.50000   0.00000  Uiso   1.00
C537   C     0.56149   0.68892   0.50000   0.00000  Uiso   1.00
C538   C     0.59224   0.69447   0.50000   0.00000  Uiso   1.00
C539   C     0.65374   0.67225   0.50000   0.00000  Uiso   1.00
C540   C     0.62299   0.67780   0.50000   0.00000  Uiso   1.00
C541   C     0.62299   0.68892   0.50000   0.00000  Uiso   1.00
C542   C     0.65374   0.69447   0.50000   0.00000  Uiso   1.00
C543   C     0.34624   0.70558   0.50000   0.00000  Uiso   1.00
C544   C     0.34624   0.72780   0.50000   0.00000  Uiso   1.00
C545   C     0.40774   0.70558   0.50000   0.00000  Uiso   1.00
C546   C     0.37699   0.71114   0.50000   0.00000  Uiso   1.00
C547   C     0.37699   0.72225   0.50000   0.00000  Uiso   1.00
C548   C     0.40774   0.72780   0.50000   0.00000  Uiso   1.00
C549   C     0.46924   0.70558   0.50000   0.00000  Uiso   1.00
C550   C     0.43849   0.71114   0.50000   0.00000  Uiso   1.00
C551   C     0.43849   0.72225   0.50000   0.00000  Uiso   1.00
C552   C     0.46924   0.72780   0.50000   0.00000  Uiso   1.00
C553   C     0.53074   0.70558   0.50000   0.00000  Uiso   1.00
C554   C     0.49999   0.71114   0.50000   0.00000  Uiso   1.00
C555   C     0.49999   0.72225   0.50000   0.00000  Uiso   1.00
C556   C     0.53074   0.72780   0.50000   0.00000  Uiso   1.00
C557   C     0.59224   0.70558   0.50000   0.00000  Uiso   1.00
C558   C     0.56149   0.71114   0.50000   0.00000  Uiso   1.00
C559   C     0.56149   0.72225   0.50000   0.00000  Uiso   1.00
C560   C     0.59224   0.72780   0.50000   0.00000  Uiso   1.00
C561   C     0.65374   0.70558   0.50000   0.00000  Uiso   1.00
C562   C     0.62299   0.71114   0.50000   0.00000  Uiso   1.00
C563   C     0.62299   0.72225   0.50000   0.00000  Uiso   1.00
C564   C     0.65374   0.72780   0.50000   0.00000  Uiso   1.00
C565   C     0.34624   0.73892   0.50000   0.00000  Uiso   1.00
C566   C     0.34624   0.76114   0.50000   0.00000  Uiso   1.00
C567   C     0.40774   0.73892   0.50000   0.00000  Uiso   1.00
C568   C     0.37699   0.74447   0.50000   0.00000  Uiso   1.00
C569   C     0.37699   0.75558   0.50000   0.00000  Uiso   1.00
C570   C     0.40774   0.76114   0.50000   0.00000  Uiso   1.00
C571   C     0.46924   0.73892   0.50000   0.00000  Uiso   1.00
C572   C     0.43849   0.74447   0.50000   0.00000  Uiso   1.00
C573   C     0.43849   0.75558   0.50000   0.00000  Uiso   1.00
C574   C     0.46924   0.76114   0.50000   0.00000  Uiso   1.00
C575   C     0.53074   0.73892   0.50000   0.00000  Uiso   1.00
C576   C     0.49999   0.74447   0.50000   0.00000  Uiso   1.00
C577   C     0.49999   0.75558   0.50000   0.00000  Uiso   1.00
C578   C     0.53074   0.76114   0.50000   0.00000  Uiso   1.00
C579   C     0.59224   0.73892   0.50000   0.00000  Uiso   1.00
C580   C     0.56149   0.74447   0.50000   0.00000  Uiso   1.00
C581   C     0.56149   0.75558   0.50000   0.00000  Uiso   1.00
C582   C     0.59224   0.76114   0.50000   0.00000  Uiso   1.00
C583   C     0.65374   0.73892   0.50000   0.00000  Uiso   1.00
C584   C     0.62299   0.74447   0.50000   0.00000  Uiso   1.00
C585   C     0.62299   0.75558   0.50000   0.00000  Uiso   1.00
C586   C     0.65374   0.76114   0.50000   0.00000  Uiso   1.00
C587   C     0.34624   0.77225   0.50000   0.00000  Uiso   1.00
C588   C     0.34624   0.79447   0.50000   0.00000  Uiso   1.00
C589   C     0.40774   0.77225   0.50000   0.00000  Uiso   1.00
C590   C     0.37699   0.77780   0.50000   0.00000  Uiso   1.00
C591   C     0.37699   0.78892   0.50000   0.00000  Uiso   1.00
C592   C     0.40774   0.79447   0.50000   0.00000  Uiso   1.00
C593   C     0.46924   0.77225   0.50000   0.00000  Uiso   1.00
C594   C     0.43849   0.77780   0.50000   0.00000  Uiso   1.00
C595   C     0.43849   0.78892   0.50000   0.00000  Uiso   1.00
C596   C     0.46924   0.79447   0.50000   0.00000  Uiso   1.00
C597   C     0.53074   0.77225   0.50000   0.00000  Uiso   1.00
C598   C     0.49999   0.77780   0.50000   0.00000  Uiso   1.00
C599   C     0.49999   0.78892   0.50000   0.00000  Uiso   1.00
C600   C     0.53074   0.79447   0.50000   0.00000  Uiso   1.00
C601   C     0.59224   0.77225   0.50000   0.00000  Uiso   1.00
C602   C     0.56149   0.77780   0.50000   0.00000  Uiso   1.00
C603   C     0.56149   0.78892   0.50000   0.00000  Uiso   1.00
C604   C     0.59224   0.79447   0.50000   0.00000  Uiso   1.00
C605   C     0.65374   0.77225   0.50000   0.00000  Uiso   1.00
C606   C     0.62299   0.77780   0.50000   0.00000  Uiso   1.00
C607   C     0.62299   0.78892   0.50000   0.00000  Uiso   1.00
C608   C     0.65374   0.79447   0.50000   0.00000  Uiso   1.00
C609   C     0.34624   0.80558   0.50000   0.00000  Uiso   1.00
C610   C     0.34624   0.82780   0.50000   0.00000  Uiso   1.00
C611   C     0.40774   0.80558   0.50000   0.00000  Uiso   1.00
C612   C     0.37699   0.81114   0.50000   0.00000  Uiso   1.00
C613   C     0.37699   0.82225   0.50000   0.00000  Uiso   1.00
C614   C     0.40774   0.82780   0.50000   0.00000  Uiso   1.00
C615   C     0.46924   0.80558   0.50000   0.00000  Uiso   1.00
C616   C     0.43849   0.81114   0.50000   0.00000  Uiso   1.00
C617   C     0.43849   0.82225   0.50000   0.00000  Uiso   1.00
C618   C     0.46924   0.82780   0.50000   0.00000  Uiso   1.00
C619   C     0.53074   0.80558   0.50000   0.00000  Uiso   1.00
C620   C     0.49999   0.81114   0.50000   0.00000  Uiso   1.00
C621   C     0.49999   0.82225   0.50000   0.00000  Uiso   1.00
C622   C     0.53074   0.82780   0.50000   0.00000  Uiso   1.00
C623   C     0.59224   0.80558   0.50000   0.00000  Uiso   1.00
C624   C     0.56149   0.81114   0.50000   0.00000  Uiso   1.00
C625   C     0.56149   0.82225   0.50000   0.00000  Uiso   1.00
C626   C     0.59224   0.82780   0.50000   0.00000  Uiso   1.00
C627   C     0.65374   0.80558   0.50000   0.00000  Uiso   1.00
C628   C     0.62299   0.81114   0.50000   0.00000  Uiso   1.00
C629   C     0.62299   0.82225   0.50000   0.00000  Uiso   1.00
C630   C     0.65374   0.82780   0.50000   0.00000  Uiso   1.00
N631   N     0.28474   0.83892   0.50000   0.00000  Uiso   1.00
N632   N     0.25399   0.84447   0.50000   0.00000  Uiso   1.00
N633   N     0.25399   0.85558   0.50000   0.00000  Uiso   1.00
N634   N     0.28474   0.86114   0.50000   0.00000  Uiso   1.00
N635   N     0.34624   0.83892   0.50000   0.00000  Uiso   1.00
N636   N     0.31549   0.84447   0.50000   0.00000  Uiso   1.00
N637   N     0.31549   0.85558   0.50000   0.00000  Uiso   1.00
N638   N     0.34624   0.86114   0.50000   0.00000  Uiso   1.00
N639   N     0.40774   0.83892   0.50000   0.00000  Uiso   1.00
N640   N     0.37699   0.84447   0.50000   0.00000  Uiso   1.00
N641   N     0.37699   0.85558   0.50000   0.00000  Uiso   1.00
N642   N     0.40774   0.86114   0.50000   0.00000  Uiso   1.00
N643   N     0.46924   0.83892   0.50000   0.00000  Uiso   1.00
N644   N     0.43849   0.84447   0.50000   0.00000  Uiso   1.00
N645   N     0.43849   0.85558   0.50000   0.00000  Uiso   1.00
N646   N     0.46924   0.86114   0.50000   0.00000  Uiso   1.00
N647   N     0.53074   0.83892   0.50000   0.00000  Uiso   1.00
N648   N     0.49999   0.84447   0.50000   0.00000  Uiso   1.00
N649   N     0.49999   0.85558   0.50000   0.00000  Uiso   1.00
N650   N     0.53074   0.86114   0.50000   0.00000  Uiso   1.00
N651   N     0.59224   0.83892   0.50000   0.00000  Uiso   1.00
N652   N     0.56149   0.84447   0.50000   0.00000  Uiso   1.00
N653   N     0.56149   0.85558   0.50000   0.00000  Uiso   1.00
N654   N     0.59224   0.86114   0.50000   0.00000  Uiso   1.00
N655   N     0.65374   0.83892   0.50000   0.00000  Uiso   1.00
N656   N     0.62299   0.84447   0.50000   0.00000  Uiso   1.00
N657   N     0.62299   0.85558   0.50000   0.00000  Uiso   1.00
N658   N     0.65374   0.86114   0.50000   0.00000  Uiso   1.00
N659   N     0.71524   0.83892   0.50000   0.00000  Uiso   1.00
N660   N     0.68449   0.84447   0.50000   0.00000  Uiso   1.00
N661   N     0.68449   0.85558   0.50000   0.00000  Uiso   1.00
N662   N     0.71524   0.86114   0.50000   0.00000  Uiso   1.00
N663   N     0.74599   0.84447   0.50000   0.00000  Uiso   1.00
N664   N     0.74599   0.85558   0.50000   0.00000  Uiso   1.00
H665   H     0.22931   0.84001   0.50000   0.00000  Uiso   1.00
H666   H     0.22931   0.86004   0.50000   0.00000  Uiso   1.00
H667   H     0.77067   0.84001   0.50000   0.00000  Uiso   1.00
H668   H     0.77067   0.86004   0.50000   0.00000  Uiso   1.00
N669   N     0.28474   0.87225   0.50000   0.00000  Uiso   1.00
N670   N     0.25399   0.87780   0.50000   0.00000  Uiso   1.00
N671   N     0.25399   0.88892   0.50000   0.00000  Uiso   1.00
N672   N     0.28474   0.89447   0.50000   0.00000  Uiso   1.00
N673   N     0.34624   0.87225   0.50000   0.00000  Uiso   1.00
N674   N     0.31549   0.87780   0.50000   0.00000  Uiso   1.00
N675   N     0.31549   0.88892   0.50000   0.00000  Uiso   1.00
N676   N     0.34624   0.89447   0.50000   0.00000  Uiso   1.00
N677   N     0.40774   0.87225   0.50000   0.00000  Uiso   1.00
N678   N     0.37699   0.87780   0.50000   0.00000  Uiso   1.00
N679   N     0.37699   0.88892   0.50000   0.00000  Uiso   1.00
N680   N     0.40774   0.89447   0.50000   0.00000  Uiso   1.00
N681   N     0.46924   0.87225   0.50000   0.00000  Uiso   1.00
N682   N     0.43849   0.87780   0.50000   0.00000  Uiso   1.00
N683   N     0.43849   0.88892   0.50000   0.00000  Uiso   1.00
N684   N     0.46924   0.89447   0.50000   0.00000  Uiso   1.00
N685   N     0.53074   0.87225   0.50000   0.00000  Uiso   1.00
N686   N     0.49999   0.87780   0.50000   0.00000  Uiso   1.00
N687   N     0.49999   0.88892   0.50000   0.00000  Uiso   1.00
N688   N     0.53074   0.89447   0.50000   0.00000  Uiso   1.00
N689   N     0.59224   0.87225   0.50000   0.00000  Uiso   1.00
N690   N     0.56149   0.87780   0.50000   0.00000  Uiso   1.00
N691   N     0.56149   0.88892   0.50000   0.00000  Uiso   1.00
N692   N     0.59224   0.89447   0.50000   0.00000  Uiso   1.00
N693   N     0.65374   0.87225   0.50000   0.00000  Uiso   1.00
N694   N     0.62299   0.87780   0.50000   0.00000  Uiso   1.00
N695   N     0.62299   0.88892   0.50000   0.00000  Uiso   1.00
N696   N     0.65374   0.89447   0.50000   0.00000  Uiso   1.00
N697   N     0.71524   0.87225   0.50000   0.00000  Uiso   1.00
N698   N     0.68449   0.87780   0.50000   0.00000  Uiso   1.00
N699   N     0.68449   0.88892   0.50000   0.00000  Uiso   1.00
N700   N     0.71524   0.89447   0.50000   0.00000  Uiso   1.00
N701   N     0.74599   0.87780   0.50000   0.00000  Uiso   1.00
N702   N     0.74599   0.88892   0.50000   0.00000  Uiso   1.00
H703   H     0.22931   0.87335   0.50000   0.00000  Uiso   1.00
H704   H     0.22931   0.89337   0.50000   0.00000  Uiso   1.00
H705   H     0.77067   0.87335   0.50000   0.00000  Uiso   1.00
H706   H     0.77067   0.89337   0.50000   0.00000  Uiso   1.00
N707   N     0.28474   0.90558   0.50000   0.00000  Uiso   1.00
N708   N     0.25399   0.91114   0.50000   0.00000  Uiso   1.00
N709   N     0.25399   0.92225   0.50000   0.00000  Uiso   1.00
N710   N     0.28474   0.92780   0.50000   0.00000  Uiso   1.00
N711   N     0.34624   0.90558   0.50000   0.00000  Uiso   1.00
N712   N     0.31549   0.91114   0.50000   0.00000  Uiso   1.00
N713   N     0.31549   0.92225   0.50000   0.00000  Uiso   1.00
N714   N     0.34624   0.92780   0.50000   0.00000  Uiso   1.00
N715   N     0.40774   0.90558   0.50000   0.00000  Uiso   1.00
N716   N     0.37699   0.91114   0.50000   0.00000  Uiso   1.00
N717   N     0.37699   0.92225   0.50000   0.00000  Uiso   1.00
N718   N     0.40774   0.92780   0.50000   0.00000  Uiso   1.00
N719   N     0.46924   0.90558   0.50000   0.00000  Uiso   1.00
N720   N     0.43849   0.91114   0.50000   0.00000  Uiso   1.00
N721   N     0.43849   0.92225   0.50000   0.00000  Uiso   1.00
N722   N     0.46924   0.92780   0.50000   0.00000  Uiso   1.00
N723   N     0.53074   0.90558   0.50000   0.00000  Uiso   1.00
N724   N     0.49999   0.91114   0.50000   0.00000  Uiso   1.00
N725   N     0.49999   0.92225   0.50000   0.00000  Uiso   1.00
N726   N     0.53074   0.92780   0.50000   0.00000  Uiso   1.00
N727   N     0.59224   0.90558   0.50000   0.00000  Uiso   1.00
N728   N     0.56149   0.91114   0.50000   0.00000  Uiso   1.00
N729   N     0.56149   0.92225   0.50000   0.00000  Uiso   1.00
N730   N     0.59224   0.92780   0.50000   0.00000  Uiso   1.00
N731   N     0.65374   0.90558   0.50000   0.00000  Uiso   1.00
N732   N     0.62299   0.91114   0.50000   0.00000  Uiso   1.00
N733   N     0.62299   0.92225   0.50000   0.00000  Uiso   1.00
N734   N     0.65374   0.92780   0.50000   0.00000  Uiso   1.00
N735   N     0.71524   0.90558   0.50000   0.00000  Uiso   1.00
N736   N     0.68449   0.91114   0.50000   0.00000  Uiso   1.00
N737   N     0.68449   0.92225   0.50000   0.00000  Uiso   1.00
N738   N     0.71524   0.92780   0.50000   0.00000  Uiso   1.00
N739   N     0.74599   0.91114   0.50000   0.00000  Uiso   1.00
N740   N     0.74599   0.92225   0.50000   0.00000  Uiso   1.00
H741   H     0.22931   0.90668   0.50000   0.00000  Uiso   1.00
H742   H     0.22931   0.92671   0.50000   0.00000  Uiso   1.00
H743   H     0.77067   0.90668   0.50000   0.00000  Uiso   1.00
H744   H     0.77067   0.92671   0.50000   0.00000  Uiso   1.00
N745   N     0.28474   0.93892   0.50000   0.00000  Uiso   1.00
N746   N     0.25399   0.94447   0.50000   0.00000  Uiso   1.00
N747   N     0.25399   0.95558   0.50000   0.00000  Uiso   1.00
N748   N     0.28474   0.96114   0.50000   0.00000  Uiso   1.00
N749   N     0.34624   0.93892   0.50000   0.00000  Uiso   1.00
N750   N     0.31549   0.94447   0.50000   0.00000  Uiso   1.00
N751   N     0.31549   0.95558   0.50000   0.00000  Uiso   1.00
N752   N     0.34624   0.96114   0.50000   0.00000  Uiso   1.00
N753   N     0.40774   0.93892   0.50000   0.00000  Uiso   1.00
N754   N     0.37699   0.94447   0.50000   0.00000  Uiso   1.00
N755   N     0.37699   0.95558   0.50000   0.00000  Uiso   1.00
N756   N     0.40774   0.96114   0.50000   0.00000  Uiso   1.00
N757   N     0.46924   0.93892   0.50000   0.00000  Uiso   1.00
N758   N     0.43849   0.94447   0.50000   0.00000  Uiso   1.00
N759   N     0.43849   0.95558   0.50000   0.00000  Uiso   1.00
N760   N     0.46924   0.96114   0.50000   0.00000  Uiso   1.00
N761   N     0.53074   0.93892   0.50000   0.00000  Uiso   1.00
N762   N     0.49999   0.94447   0.50000   0.00000  Uiso   1.00
N763   N     0.49999   0.95558   0.50000   0.00000  Uiso   1.00
N764   N     0.53074   0.96114   0.50000   0.00000  Uiso   1.00
N765   N     0.59224   0.93892   0.50000   0.00000  Uiso   1.00
N766   N     0.56149   0.94447   0.50000   0.00000  Uiso   1.00
N767   N     0.56149   0.95558   0.50000   0.00000  Uiso   1.00
N768   N     0.59224   0.96114   0.50000   0.00000  Uiso   1.00
N769   N     0.65374   0.93892   0.50000   0.00000  Uiso   1.00
N770   N     0.62299   0.94447   0.50000   0.00000  Uiso   1.00
N771   N     0.62299   0.95558   0.50000   0.00000  Uiso   1.00
N772   N     0.65374   0.96114   0.50000   0.00000  Uiso   1.00
N773   N     0.71524   0.93892   0.50000   0.00000  Uiso   1.00
N774   N     0.68449   0.94447   0.50000   0.00000  Uiso   1.00
N775   N     0.68449   0.95558   0.50000   0.00000  Uiso   1.00
N776   N     0.71524   0.96114   0.50000   0.00000  Uiso   1.00
N777   N     0.74599   0.94447   0.50000   0.00000  Uiso   1.00
N778   N     0.74599   0.95558   0.50000   0.00000  Uiso   1.00
H779   H     0.22931   0.94001   0.50000   0.00000  Uiso   1.00
H780   H     0.22931   0.96004   0.50000   0.00000  Uiso   1.00
H781   H     0.77067   0.94001   0.50000   0.00000  Uiso   1.00
H782   H     0.77067   0.96004   0.50000   0.00000  Uiso   1.00
N783   N     0.28474   0.97225   0.50000   0.00000  Uiso   1.00
N784   N     0.25399   0.97780   0.50000   0.00000  Uiso   1.00
N785   N     0.25399   0.98892   0.50000   0.00000  Uiso   1.00
N786   N     0.28474   0.99447   0.50000   0.00000  Uiso   1.00
N787   N     0.34624   0.97225   0.50000   0.00000  Uiso   1.00
N788   N     0.31549   0.97780   0.50000   0.00000  Uiso   1.00
N789   N     0.31549   0.98892   0.50000   0.00000  Uiso   1.00
N790   N     0.34624   0.99447   0.50000   0.00000  Uiso   1.00
N791   N     0.40774   0.97225   0.50000   0.00000  Uiso   1.00
N792   N     0.37699   0.97780   0.50000   0.00000  Uiso   1.00
N793   N     0.37699   0.98892   0.50000   0.00000  Uiso   1.00
N794   N     0.40774   0.99447   0.50000   0.00000  Uiso   1.00
N795   N     0.46924   0.97225   0.50000   0.00000  Uiso   1.00
N796   N     0.43849   0.97780   0.50000   0.00000  Uiso   1.00
N797   N     0.43849   0.98892   0.50000   0.00000  Uiso   1.00
N798   N     0.46924   0.99447   0.50000   0.00000  Uiso   1.00
N799   N     0.53074   0.97225   0.50000   0.00000  Uiso   1.00
N800   N     0.49999   0.97780   0.50000   0.00000  Uiso   1.00
N801   N     0.49999   0.98892   0.50000   0.00000  Uiso   1.00
N802   N     0.53074   0.99447   0.50000   0.00000  Uiso   1.00
N803   N     0.59224   0.97225   0.50000   0.00000  Uiso   1.00
N804   N     0.56149   0.97780   0.50000   0.00000  Uiso   1.00
N805   N     0.56149   0.98892   0.50000   0.00000  Uiso   1.00
N806   N     0.59224   0.99447   0.50000   0.00000  Uiso   1.00
N807   N     0.65374   0.97225   0.50000   0.00000  Uiso   1.00
N808   N     0.62299   0.97780   0.50000   0.00000  Uiso   1.00
N809   N     0.62299   0.98892   0.50000   0.00000  Uiso   1.00
N810   N     0.65374   0.99447   0.50000   0.00000  Uiso   1.00
N811   N     0.71524   0.97225   0.50000   0.00000  Uiso   1.00
N812   N     0.68449   0.97780   0.50000   0.00000  Uiso   1.00
N813   N     0.68449   0.98892   0.50000   0.00000  Uiso   1.00
N814   N     0.71524   0.99447   0.50000   0.00000  Uiso   1.00
N815   N     0.74599   0.97780   0.50000   0.00000  Uiso   1.00
N816   N     0.74599   0.98892   0.50000   0.00000  Uiso   1.00
H817   H     0.22931   0.97335   0.50000   0.00000  Uiso   1.00
H818   H     0.22931   0.99337   0.50000   0.00000  Uiso   1.00
H819   H     0.77067   0.97335   0.50000   0.00000  Uiso   1.00
H820   H     0.77067   0.99337   0.50000   0.00000  Uiso   1.00
H821   H     0.28474   0.17006   0.50000   0.00000  Uiso   1.00
H822   H     0.71524   0.17006   0.50000   0.00000  Uiso   1.00
H823   H     0.32156   0.17671   0.50000   0.00000  Uiso   1.00
H824   H     0.32156   0.19001   0.50000   0.00000  Uiso   1.00
H825   H     0.67842   0.17671   0.50000   0.00000  Uiso   1.00
H826   H     0.67842   0.19001   0.50000   0.00000  Uiso   1.00
H827   H     0.32156   0.21004   0.50000   0.00000  Uiso   1.00
H828   H     0.32156   0.22335   0.50000   0.00000  Uiso   1.00
H829   H     0.67842   0.21004   0.50000   0.00000  Uiso   1.00
H830   H     0.67842   0.22335   0.50000   0.00000  Uiso   1.00
H831   H     0.32156   0.24337   0.50000   0.00000  Uiso   1.00
H832   H     0.32156   0.25668   0.50000   0.00000  Uiso   1.00
H833   H     0.67842   0.24337   0.50000   0.00000  Uiso   1.00
H834   H     0.67842   0.25668   0.50000   0.00000  Uiso   1.00
H835   H     0.32156   0.27671   0.50000   0.00000  Uiso   1.00
H836   H     0.32156   0.29001   0.50000   0.00000  Uiso   1.00
H837   H     0.67842   0.27671   0.50000   0.00000  Uiso   1.00
H838   H     0.67842   0.29001   0.50000   0.00000  Uiso   1.00
H839   H     0.32156   0.31004   0.50000   0.00000  Uiso   1.00
H840   H     0.32156   0.32335   0.50000   0.00000  Uiso   1.00
H841   H     0.67842   0.31004   0.50000   0.00000  Uiso   1.00
H842   H     0.67842   0.32335   0.50000   0.00000  Uiso   1.00
H843   H     0.32156   0.34337   0.50000   0.00000  Uiso   1.00
H844   H     0.32156   0.35668   0.50000   0.00000  Uiso   1.00
H845   H     0.67842   0.34337   0.50000   0.00000  Uiso   1.00
H846   H     0.67842   0.35668   0.50000   0.00000  Uiso   1.00
H847   H     0.32156   0.37671   0.50000   0.00000  Uiso   1.00
H848   H     0.32156   0.39001   0.50000   0.00000  Uiso   1.00
H849   H     0.67842   0.37671   0.50000   0.00000  Uiso   1.00
H850   H     0.67842   0.39001   0.50000   0.00000  Uiso   1.00
H851   H     0.32156   0.41004   0.50000   0.00000  Uiso   1.00
H852   H     0.32156   0.42335   0.50000   0.00000  Uiso   1.00
H853   H     0.67842   0.41004   0.50000   0.00000  Uiso   1.00
H854   H     0.67842   0.42335   0.50000   0.00000  Uiso   1.00
H855   H     0.32156   0.44337   0.50000   0.00000  Uiso   1.00
H856   H     0.32156   0.45668   0.50000   0.00000  Uiso   1.00
H857   H     0.67842   0.44337   0.50000   0.00000  Uiso   1.00
H858   H     0.67842   0.45668   0.50000   0.00000  Uiso   1.00
H859   H     0.32156   0.47671   0.50000   0.00000  Uiso   1.00
H860   H     0.32156   0.49001   0.50000   0.00000  Uiso   1.00
H861   H     0.67842   0.47671   0.50000   0.00000  Uiso   1.00
H862   H     0.67842   0.49001   0.50000   0.00000  Uiso   1.00
H863   H     0.32156   0.51004   0.50000   0.00000  Uiso   1.00
H864   H     0.32156   0.52335   0.50000   0.00000  Uiso   1.00
H865   H     0.67842   0.51004   0.50000   0.00000  Uiso   1.00
H866   H     0.67842   0.52335   0.50000   0.00000  Uiso   1.00
H867   H     0.32156   0.54337   0.50000   0.00000  Uiso   1.00
H868   H     0.32156   0.55668   0.50000   0.00000  Uiso   1.00
H869   H     0.67842   0.54337   0.50000   0.00000  Uiso   1.00
H870   H     0.67842   0.55668   0.50000   0.00000  Uiso   1.00
H871   H     0.32156   0.57671   0.50000   0.00000  Uiso   1.00
H872   H     0.32156   0.59001   0.50000   0.00000  Uiso   1.00
H873   H     0.67842   0.57671   0.50000   0.00000  Uiso   1.00
H874   H     0.67842   0.59001   0.50000   0.00000  Uiso   1.00
H875   H     0.32156   0.61004   0.50000   0.00000  Uiso   1.00
H876   H     0.32156   0.62335   0.50000   0.00000  Uiso   1.00
H877   H     0.67842   0.61004   0.50000   0.00000  Uiso   1.00
H878   H     0.67842   0.62335   0.50000   0.00000  Uiso   1.00
H879   H     0.32156   0.64337   0.50000   0.00000  Uiso   1.00
H880   H     0.32156   0.65668   0.50000   0.00000  Uiso   1.00
H881   H     0.67842   0.64337   0.50000   0.00000  Uiso   1.00
H882   H     0.67842   0.65668   0.50000   0.00000  Uiso   1.00
H883   H     0.32156   0.67671   0.50000   0.00000  Uiso   1.00
H884   H     0.32156   0.69001   0.50000   0.00000  Uiso   1.00
H885   H     0.67842   0.67671   0.50000   0.00000  Uiso   1.00
H886   H     0.67842   0.69001   0.50000   0.00000  Uiso   1.00
H887   H     0.32156   0.71004   0.50000   0.00000  Uiso   1.00
H888   H     0.32156   0.72335   0.50000   0.00000  Uiso   1.00
H889   H     0.67842   0.71004   0.50000   0.00000  Uiso   1.00
H890   H     0.67842   0.72335   0.50000   0.00000  Uiso   1.00
H891   H     0.32156   0.74337   0.50000   0.00000  Uiso   1.00
H892   H     0.32156   0.75668   0.50000   0.00000  Uiso   1.00
H893   H     0.67842   0.74337   0.50000   0.00000  Uiso   1.00
H894   H     0.67842   0.75668   0.50000   0.00000  Uiso   1.00
H895   H     0.32156   0.77671   0.50000   0.00000  Uiso   1.00
H896   H     0.32156   0.79001   0.50000   0.00000  Uiso   1.00
H897   H     0.67842   0.77671   0.50000   0.00000  Uiso   1.00
H898   H     0.67842   0.79001   0.50000   0.00000  Uiso   1.00
H899   H     0.32156   0.81004   0.50000   0.00000  Uiso   1.00
H900   H     0.32156   0.82335   0.50000   0.00000  Uiso   1.00
H901   H     0.67842   0.81004   0.50000   0.00000  Uiso   1.00
H902   H     0.67842   0.82335   0.50000   0.00000  Uiso   1.00
H903   H     0.28474   0.83000   0.50000   0.00000  Uiso   1.00
H904   H     0.71524   0.83000   0.50000   0.00000  Uiso   1.00
loop_
_geom_bond_atom_site_label_1
_geom_bond_atom_site_label_2
_geom_bond_distance
_geom_bond_site_symmetry_2
_ccdc_geom_bond_type
N1     N6      1.420   .     A
N1     N2      1.420   .     A
N1     N786    1.420   1_545 S
N2     N3      1.420   .     A
N2     H35     1.140   .     S
N3     N4      1.420   .     A
N3     H36     1.140   .     S
N4     N7      1.420   .     A
N4     N39     1.420   .     S
N5     N10     1.420   .     A
N5     N6      1.420   .     A
N5     N790    1.420   1_545 S
N6     N7      1.420   .     A
N7     N8      1.420   .     A
N8     N11     1.420   .     A
N8     N43     1.420   .     S
N9     N14     1.420   .     A
N9     N10     1.420   .     A
N9     N794    1.420   1_545 S
N10    N11     1.420   .     A
N11    N12     1.420   .     A
N12    N15     1.420   .     A
N12    N47     1.420   .     S
N13    N18     1.420   .     A
N13    N14     1.420   .     A
N13    N798    1.420   1_545 S
N14    N15     1.420   .     A
N15    N16     1.420   .     A
N16    N19     1.420   .     A
N16    N51     1.420   .     S
N17    N22     1.420   .     A
N17    N18     1.420   .     A
N17    N802    1.420   1_545 S
N18    N19     1.420   .     A
N19    N20     1.420   .     A
N20    N23     1.420   .     A
N20    N55     1.420   .     S
N21    N26     1.420   .     A
N21    N22     1.420   .     A
N21    N806    1.420   1_545 S
N22    N23     1.420   .     A
N23    N24     1.420   .     A
N24    N27     1.420   .     A
N24    N59     1.420   .     S
N25    N30     1.420   .     A
N25    N26     1.420   .     A
N25    N810    1.420   1_545 S
N26    N27     1.420   .     A
N27    N28     1.420   .     A
N28    N31     1.420   .     A
N28    N63     1.420   .     S
N29    N33     1.420   .     A
N29    N30     1.420   .     A
N29    N814    1.420   1_545 S
N30    N31     1.420   .     A
N31    N32     1.420   .     A
N32    N34     1.420   .     A
N32    N67     1.420   .     S
N33    N34     1.420   .     A
N33    H37     1.140   .     S
N34    H38     1.140   .     S
N39    N44     1.420   .     A
N39    N40     1.420   .     A
N40    N41     1.420   .     A
N40    H73     1.140   .     S
N41    N42     1.420   .     A
N41    H74     1.140   .     S
N42    N45     1.420   .     A
N42    N77     1.420   .     S
N43    N48     1.420   .     A
N43    N44     1.420   .     A
N44    N45     1.420   .     A
N45    N46     1.420   .     A
N46    N49     1.420   .     A
N46    N81     1.420   .     S
N47    N52     1.420   .     A
N47    N48     1.420   .     A
N48    N49     1.420   .     A
N49    N50     1.420   .     A
N50    N53     1.420   .     A
N50    N85     1.420   .     S
N51    N56     1.420   .     A
N51    N52     1.420   .     A
N52    N53     1.420   .     A
N53    N54     1.420   .     A
N54    N57     1.420   .     A
N54    N89     1.420   .     S
N55    N60     1.420   .     A
N55    N56     1.420   .     A
N56    N57     1.420   .     A
N57    N58     1.420   .     A
N58    N61     1.420   .     A
N58    N93     1.420   .     S
N59    N64     1.420   .     A
N59    N60     1.420   .     A
N60    N61     1.420   .     A
N61    N62     1.420   .     A
N62    N65     1.420   .     A
N62    N97     1.420   .     S
N63    N68     1.420   .     A
N63    N64     1.420   .     A
N64    N65     1.420   .     A
N65    N66     1.420   .     A
N66    N69     1.420   .     A
N66    N101    1.420   .     S
N67    N71     1.420   .     A
N67    N68     1.420   .     A
N68    N69     1.420   .     A
N69    N70     1.420   .     A
N70    N72     1.420   .     A
N70    N105    1.420   .     S
N71    N72     1.420   .     A
N71    H75     1.140   .     S
N72    H76     1.140   .     S
N77    N82     1.420   .     A
N77    N78     1.420   .     A
N78    N79     1.420   .     A
N78    H111    1.140   .     S
N79    N80     1.420   .     A
N79    H112    1.140   .     S
N80    N83     1.420   .     A
N80    N115    1.420   .     S
N81    N86     1.420   .     A
N81    N82     1.420   .     A
N82    N83     1.420   .     A
N83    N84     1.420   .     A
N84    N87     1.420   .     A
N84    N119    1.420   .     S
N85    N90     1.420   .     A
N85    N86     1.420   .     A
N86    N87     1.420   .     A
N87    N88     1.420   .     A
N88    N91     1.420   .     A
N88    N123    1.420   .     S
N89    N94     1.420   .     A
N89    N90     1.420   .     A
N90    N91     1.420   .     A
N91    N92     1.420   .     A
N92    N95     1.420   .     A
N92    N127    1.420   .     S
N93    N98     1.420   .     A
N93    N94     1.420   .     A
N94    N95     1.420   .     A
N95    N96     1.420   .     A
N96    N99     1.420   .     A
N96    N131    1.420   .     S
N97    N102    1.420   .     A
N97    N98     1.420   .     A
N98    N99     1.420   .     A
N99    N100    1.420   .     A
N100   N103    1.420   .     A
N100   N135    1.420   .     S
N101   N106    1.420   .     A
N101   N102    1.420   .     A
N102   N103    1.420   .     A
N103   N104    1.420   .     A
N104   N107    1.420   .     A
N104   N139    1.420   .     S
N105   N109    1.420   .     A
N105   N106    1.420   .     A
N106   N107    1.420   .     A
N107   N108    1.420   .     A
N108   N110    1.420   .     A
N108   N143    1.420   .     S
N109   N110    1.420   .     A
N109   H113    1.140   .     S
N110   H114    1.140   .     S
N115   N120    1.420   .     A
N115   N116    1.420   .     A
N116   N117    1.420   .     A
N116   H149    1.140   .     S
N117   N118    1.420   .     A
N117   H150    1.140   .     S
N118   N121    1.420   .     A
N118   N153    1.420   .     S
N119   N124    1.420   .     A
N119   N120    1.420   .     A
N120   N121    1.420   .     A
N121   N122    1.420   .     A
N122   N125    1.420   .     A
N122   N157    1.420   .     S
N123   N128    1.420   .     A
N123   N124    1.420   .     A
N124   N125    1.420   .     A
N125   N126    1.420   .     A
N126   N129    1.420   .     A
N126   N161    1.420   .     S
N127   N132    1.420   .     A
N127   N128    1.420   .     A
N128   N129    1.420   .     A
N129   N130    1.420   .     A
N130   N133    1.420   .     A
N130   N165    1.420   .     S
N131   N136    1.420   .     A
N131   N132    1.420   .     A
N132   N133    1.420   .     A
N133   N134    1.420   .     A
N134   N137    1.420   .     A
N134   N169    1.420   .     S
N135   N140    1.420   .     A
N135   N136    1.420   .     A
N136   N137    1.420   .     A
N137   N138    1.420   .     A
N138   N141    1.420   .     A
N138   N173    1.420   .     S
N139   N144    1.420   .     A
N139   N140    1.420   .     A
N140   N141    1.420   .     A
N141   N142    1.420   .     A
N142   N145    1.420   .     A
N142   N177    1.420   .     S
N143   N147    1.420   .     A
N143   N144    1.420   .     A
N144   N145    1.420   .     A
N145   N146    1.420   .     A
N146   N148    1.420   .     A
N146   N181    1.420   .     S
N147   N148    1.420   .     A
N147   H151    1.140   .     S
N148   H152    1.140   .     S
N153   N158    1.420   .     A
N153   N154    1.420   .     A
N154   N155    1.420   .     A
N154   H187    1.140   .     S
N155   N156    1.420   .     A
N155   H188    1.140   .     S
N156   N159    1.420   .     A
N156   H821    1.140   .     S
N157   N162    1.420   .     A
N157   N158    1.420   .     A
N158   N159    1.420   .     A
N159   N160    1.420   .     A
N160   N163    1.420   .     A
N160   C191    1.420   .     S
N161   N166    1.420   .     A
N161   N162    1.420   .     A
N162   N163    1.420   .     A
N163   N164    1.420   .     A
N164   N167    1.420   .     A
N164   C193    1.420   .     S
N165   N170    1.420   .     A
N165   N166    1.420   .     A
N166   N167    1.420   .     A
N167   N168    1.420   .     A
N168   N171    1.420   .     A
N168   C197    1.420   .     S
N169   N174    1.420   .     A
N169   N170    1.420   .     A
N170   N171    1.420   .     A
N171   N172    1.420   .     A
N172   N175    1.420   .     A
N172   C201    1.420   .     S
N173   N178    1.420   .     A
N173   N174    1.420   .     A
N174   N175    1.420   .     A
N175   N176    1.420   .     A
N176   N179    1.420   .     A
N176   C205    1.420   .     S
N177   N182    1.420   .     A
N177   N178    1.420   .     A
N178   N179    1.420   .     A
N179   N180    1.420   .     A
N180   N183    1.420   .     A
N180   C209    1.420   .     S
N181   N185    1.420   .     A
N181   N182    1.420   .     A
N182   N183    1.420   .     A
N183   N184    1.420   .     A
N184   N186    1.420   .     A
N184   H822    1.140   .     S
N185   N186    1.420   .     A
N185   H189    1.140   .     S
N186   H190    1.140   .     S
C191   C194    1.420   .     A
C191   H823    1.140   .     S
C192   C195    1.420   .     A
C192   C213    1.420   .     S
C192   H824    1.140   .     S
C193   C198    1.420   .     A
C193   C194    1.420   .     A
C194   C195    1.420   .     A
C195   C196    1.420   .     A
C196   C199    1.420   .     A
C196   C215    1.420   .     S
C197   C202    1.420   .     A
C197   C198    1.420   .     A
C198   C199    1.420   .     A
C199   C200    1.420   .     A
C200   C203    1.420   .     A
C200   C219    1.420   .     S
C201   C206    1.420   .     A
C201   C202    1.420   .     A
C202   C203    1.420   .     A
C203   C204    1.420   .     A
C204   C207    1.420   .     A
C204   C223    1.420   .     S
C205   C210    1.420   .     A
C205   C206    1.420   .     A
C206   C207    1.420   .     A
C207   C208    1.420   .     A
C208   C211    1.420   .     A
C208   C227    1.420   .     S
C209   C210    1.420   .     A
C209   H825    1.140   .     S
C210   C211    1.420   .     A
C211   C212    1.420   .     A
C212   C231    1.420   .     S
C212   H826    1.140   .     S
C213   C216    1.420   .     A
C213   H827    1.140   .     S
C214   C217    1.420   .     A
C214   C235    1.420   .     S
C214   H828    1.140   .     S
C215   C220    1.420   .     A
C215   C216    1.420   .     A
C216   C217    1.420   .     A
C217   C218    1.420   .     A
C218   C221    1.420   .     A
C218   C237    1.420   .     S
C219   C224    1.420   .     A
C219   C220    1.420   .     A
C220   C221    1.420   .     A
C221   C222    1.420   .     A
C222   C225    1.420   .     A
C222   C241    1.420   .     S
C223   C228    1.420   .     A
C223   C224    1.420   .     A
C224   C225    1.420   .     A
C225   C226    1.420   .     A
C226   C229    1.420   .     A
C226   C245    1.420   .     S
C227   C232    1.420   .     A
C227   C228    1.420   .     A
C228   C229    1.420   .     A
C229   C230    1.420   .     A
C230   C233    1.420   .     A
C230   C249    1.420   .     S
C231   C232    1.420   .     A
C231   H829    1.140   .     S
C232   C233    1.420   .     A
C233   C234    1.420   .     A
C234   C253    1.420   .     S
C234   H830    1.140   .     S
C235   C238    1.420   .     A
C235   H831    1.140   .     S
C236   C239    1.420   .     A
C236   C257    1.420   .     S
C236   H832    1.140   .     S
C237   C242    1.420   .     A
C237   C238    1.420   .     A
C238   C239    1.420   .     A
C239   C240    1.420   .     A
C240   C243    1.420   .     A
C240   C259    1.420   .     S
C241   C246    1.420   .     A
C241   C242    1.420   .     A
C242   C243    1.420   .     A
C243   C244    1.420   .     A
C244   C247    1.420   .     A
C244   C263    1.420   .     S
C245   C250    1.420   .     A
C245   C246    1.420   .     A
C246   C247    1.420   .     A
C247   C248    1.420   .     A
C248   C251    1.420   .     A
C248   C267    1.420   .     S
C249   C254    1.420   .     A
C249   C250    1.420   .     A
C250   C251    1.420   .     A
C251   C252    1.420   .     A
C252   C255    1.420   .     A
C252   C271    1.420   .     S
C253   C254    1.420   .     A
C253   H833    1.140   .     S
C254   C255    1.420   .     A
C255   C256    1.420   .     A
C256   C275    1.420   .     S
C256   H834    1.140   .     S
C257   C260    1.420   .     A
C257   H835    1.140   .     S
C258   C261    1.420   .     A
C258   C279    1.420   .     S
C258   H836    1.140   .     S
C259   C264    1.420   .     A
C259   C260    1.420   .     A
C260   C261    1.420   .     A
C261   C262    1.420   .     A
C262   C265    1.420   .     A
C262   C281    1.420   .     S
C263   C268    1.420   .     A
C263   C264    1.420   .     A
C264   C265    1.420   .     A
C265   C266    1.420   .     A
C266   C269    1.420   .     A
C266   C285    1.420   .     S
C267   C272    1.420   .     A
C267   C268    1.420   .     A
C268   C269    1.420   .     A
C269   C270    1.420   .     A
C270   C273    1.420   .     A
C270   C289    1.420   .     S
C271   C276    1.420   .     A
C271   C272    1.420   .     A
C272   C273    1.420   .     A
C273   C274    1.420   .     A
C274   C277    1.420   .     A
C274   C293    1.420   .     S
C275   C276    1.420   .     A
C275   H837    1.140   .     S
C276   C277    1.420   .     A
C277   C278    1.420   .     A
C278   C297    1.420   .     S
C278   H838    1.140   .     S
C279   C282    1.420   .     A
C279   H839    1.140   .     S
C280   C283    1.420   .     A
C280   C301    1.420   .     S
C280   H840    1.140   .     S
C281   C286    1.420   .     A
C281   C282    1.420   .     A
C282   C283    1.420   .     A
C283   C284    1.420   .     A
C284   C287    1.420   .     A
C284   C303    1.420   .     S
C285   C290    1.420   .     A
C285   C286    1.420   .     A
C286   C287    1.420   .     A
C287   C288    1.420   .     A
C288   C291    1.420   .     A
C288   C307    1.420   .     S
C289   C294    1.420   .     A
C289   C290    1.420   .     A
C290   C291    1.420   .     A
C291   C292    1.420   .     A
C292   C295    1.420   .     A
C292   C311    1.420   .     S
C293   C298    1.420   .     A
C293   C294    1.420   .     A
C294   C295    1.420   .     A
C295   C296    1.420   .     A
C296   C299    1.420   .     A
C296   C315    1.420   .     S
C297   C298    1.420   .     A
C297   H841    1.140   .     S
C298   C299    1.420   .     A
C299   C300    1.420   .     A
C300   C319    1.420   .     S
C300   H842    1.140   .     S
C301   C304    1.420   .     A
C301   H843    1.140   .     S
C302   C305    1.420   .     A
C302   C323    1.420   .     S
C302   H844    1.140   .     S
C303   C308    1.420   .     A
C303   C304    1.420   .     A
C304   C305    1.420   .     A
C305   C306    1.420   .     A
C306   C309    1.420   .     A
C306   C325    1.420   .     S
C307   C312    1.420   .     A
C307   C308    1.420   .     A
C308   C309    1.420   .     A
C309   C310    1.420   .     A
C310   C313    1.420   .     A
C310   C329    1.420   .     S
C311   C316    1.420   .     A
C311   C312    1.420   .     A
C312   C313    1.420   .     A
C313   C314    1.420   .     A
C314   C317    1.420   .     A
C314   C333    1.420   .     S
C315   C320    1.420   .     A
C315   C316    1.420   .     A
C316   C317    1.420   .     A
C317   C318    1.420   .     A
C318   C321    1.420   .     A
C318   C337    1.420   .     S
C319   C320    1.420   .     A
C319   H845    1.140   .     S
C320   C321    1.420   .     A
C321   C322    1.420   .     A
C322   C341    1.420   .     S
C322   H846    1.140   .     S
C323   C326    1.420   .     A
C323   H847    1.140   .     S
C324   C327    1.420   .     A
C324   C345    1.420   .     S
C324   H848    1.140   .     S
C325   C330    1.420   .     A
C325   C326    1.420   .     A
C326   C327    1.420   .     A
C327   C328    1.420   .     A
C328   C331    1.420   .     A
C328   C347    1.420   .     S
C329   C334    1.420   .     A
C329   C330    1.420   .     A
C330   C331    1.420   .     A
C331   C332    1.420   .     A
C332   C335    1.420   .     A
C332   C351    1.420   .     S
C333   C338    1.420   .     A
C333   C334    1.420   .     A
C334   C335    1.420   .     A
C335   C336    1.420   .     A
C336   C339    1.420   .     A
C336   C355    1.420   .     S
C337   C342    1.420   .     A
C337   C338    1.420   .     A
C338   C339    1.420   .     A
C339   C340    1.420   .     A
C340   C343    1.420   .     A
C340   C359    1.420   .     S
C341   C342    1.420   .     A
C341   H849    1.140   .     S
C342   C343    1.420   .     A
C343   C344    1.420   .     A
C344   C363    1.420   .     S
C344   H850    1.140   .     S
C345   C348    1.420   .     A
C345   H851    1.140   .     S
C346   C349    1.420   .     A
C346   C367    1.420   .     S
C346   H852    1.140   .     S
C347   C352    1.420   .     A
C347   C348    1.420   .     A
C348   C349    1.420   .     A
C349   C350    1.420   .     A
C350   C353    1.420   .     A
C350   C369    1.420   .     S
C351   C356    1.420   .     A
C351   C352    1.420   .     A
C352   C353    1.420   .     A
C353   C354    1.420   .     A
C354   C357    1.420   .     A
C354   C373    1.420   .     S
C355   C360    1.420   .     A
C355   C356    1.420   .     A
C356   C357    1.420   .     A
C357   C358    1.420   .     A
C358   C361    1.420   .     A
C358   C377    1.420   .     S
C359   C364    1.420   .     A
C359   C360    1.420   .     A
C360   C361    1.420   .     A
C361   C362    1.420   .     A
C362   C365    1.420   .     A
C362   C381    1.420   .     S
C363   C364    1.420   .     A
C363   H853    1.140   .     S
C364   C365    1.420   .     A
C365   C366    1.420   .     A
C366   C385    1.420   .     S
C366   H854    1.140   .     S
C367   C370    1.420   .     A
C367   H855    1.140   .     S
C368   C371    1.420   .     A
C368   C389    1.420   .     S
C368   H856    1.140   .     S
C369   C374    1.420   .     A
C369   C370    1.420   .     A
C370   C371    1.420   .     A
C371   C372    1.420   .     A
C372   C375    1.420   .     A
C372   C391    1.420   .     S
C373   C378    1.420   .     A
C373   C374    1.420   .     A
C374   C375    1.420   .     A
C375   C376    1.420   .     A
C376   C379    1.420   .     A
C376   C395    1.420   .     S
C377   C382    1.420   .     A
C377   C378    1.420   .     A
C378   C379    1.420   .     A
C379   C380    1.420   .     A
C380   C383    1.420   .     A
C380   C399    1.420   .     S
C381   C386    1.420   .     A
C381   C382    1.420   .     A
C382   C383    1.420   .     A
C383   C384    1.420   .     A
C384   C387    1.420   .     A
C384   C403    1.420   .     S
C385   C386    1.420   .     A
C385   H857    1.140   .     S
C386   C387    1.420   .     A
C387   C388    1.420   .     A
C388   C407    1.420   .     S
C388   H858    1.140   .     S
C389   C392    1.420   .     A
C389   H859    1.140   .     S
C390   C393    1.420   .     A
C390   C411    1.420   .     S
C390   H860    1.140   .     S
C391   C396    1.420   .     A
C391   C392    1.420   .     A
C392   C393    1.420   .     A
C393   C394    1.420   .     A
C394   C397    1.420   .     A
C394   C413    1.420   .     S
C395   C400    1.420   .     A
C395   C396    1.420   .     A
C396   C397    1.420   .     A
C397   C398    1.420   .     A
C398   C401    1.420   .     A
C398   C417    1.420   .     S
C399   C404    1.420   .     A
C399   C400    1.420   .     A
C400   C401    1.420   .     A
C401   C402    1.420   .     A
C402   C405    1.420   .     A
C402   C421    1.420   .     S
C403   C408    1.420   .     A
C403   C404    1.420   .     A
C404   C405    1.420   .     A
C405   C406    1.420   .     A
C406   C409    1.420   .     A
C406   C425    1.420   .     S
C407   C408    1.420   .     A
C407   H861    1.140   .     S
C408   C409    1.420   .     A
C409   C410    1.420   .     A
C410   C429    1.420   .     S
C410   H862    1.140   .     S
C411   C414    1.420   .     A
C411   H863    1.140   .     S
C412   C415    1.420   .     A
C412   C433    1.420   .     S
C412   H864    1.140   .     S
C413   C418    1.420   .     A
C413   C414    1.420   .     A
C414   C415    1.420   .     A
C415   C416    1.420   .     A
C416   C419    1.420   .     A
C416   C435    1.420   .     S
C417   C422    1.420   .     A
C417   C418    1.420   .     A
C418   C419    1.420   .     A
C419   C420    1.420   .     A
C420   C423    1.420   .     A
C420   C439    1.420   .     S
C421   C426    1.420   .     A
C421   C422    1.420   .     A
C422   C423    1.420   .     A
C423   C424    1.420   .     A
C424   C427    1.420   .     A
C424   C443    1.420   .     S
C425   C430    1.420   .     A
C425   C426    1.420   .     A
C426   C427    1.420   .     A
C427   C428    1.420   .     A
C428   C431    1.420   .     A
C428   C447    1.420   .     S
C429   C430    1.420   .     A
C429   H865    1.140   .     S
C430   C431    1.420   .     A
C431   C432    1.420   .     A
C432   C451    1.420   .     S
C432   H866    1.140   .     S
C433   C436    1.420   .     A
C433   H867    1.140   .     S
C434   C437    1.420   .     A
C434   C455    1.420   .     S
C434   H868    1.140   .     S
C435   C440    1.420   .     A
C435   C436    1.420   .     A
C436   C437    1.420   .     A
C437   C438    1.420   .     A
C438   C441    1.420   .     A
C438   C457    1.420   .     S
C439   C444    1.420   .     A
C439   C440    1.420   .     A
C440   C441    1.420   .     A
C441   C442    1.420   .     A
C442   C445    1.420   .     A
C442   C461    1.420   .     S
C443   C448    1.420   .     A
C443   C444    1.420   .     A
C444   C445    1.420   .     A
C445   C446    1.420   .     A
C446   C449    1.420   .     A
C446   C465    1.420   .     S
C447   C452    1.420   .     A
C447   C448    1.420   .     A
C448   C449    1.420   .     A
C449   C450    1.420   .     A
C450   C453    1.420   .     A
C450   C469    1.420   .     S
C451   C452    1.420   .     A
C451   H869    1.140   .     S
C452   C453    1.420   .     A
C453   C454    1.420   .     A
C454   C473    1.420   .     S
C454   H870    1.140   .     S
C455   C458    1.420   .     A
C455   H871    1.140   .     S
C456   C459    1.420   .     A
C456   C477    1.420   .     S
C456   H872    1.140   .     S
C457   C462    1.420   .     A
C457   C458    1.420   .     A
C458   C459    1.420   .     A
C459   C460    1.420   .     A
C460   C463    1.420   .     A
C460   C479    1.420   .     S
C461   C466    1.420   .     A
C461   C462    1.420   .     A
C462   C463    1.420   .     A
C463   C464    1.420   .     A
C464   C467    1.420   .     A
C464   C483    1.420   .     S
C465   C470    1.420   .     A
C465   C466    1.420   .     A
C466   C467    1.420   .     A
C467   C468    1.420   .     A
C468   C471    1.420   .     A
C468   C487    1.420   .     S
C469   C474    1.420   .     A
C469   C470    1.420   .     A
C470   C471    1.420   .     A
C471   C472    1.420   .     A
C472   C475    1.420   .     A
C472   C491    1.420   .     S
C473   C474    1.420   .     A
C473   H873    1.140   .     S
C474   C475    1.420   .     A
C475   C476    1.420   .     A
C476   C495    1.420   .     S
C476   H874    1.140   .     S
C477   C480    1.420   .     A
C477   H875    1.140   .     S
C478   C481    1.420   .     A
C478   C499    1.420   .     S
C478   H876    1.140   .     S
C479   C484    1.420   .     A
C479   C480    1.420   .     A
C480   C481    1.420   .     A
C481   C482    1.420   .     A
C482   C485    1.420   .     A
C482   C501    1.420   .     S
C483   C488    1.420   .     A
C483   C484    1.420   .     A
C484   C485    1.420   .     A
C485   C486    1.420   .     A
C486   C489    1.420   .     A
C486   C505    1.420   .     S
C487   C492    1.420   .     A
C487   C488    1.420   .     A
C488   C489    1.420   .     A
C489   C490    1.420   .     A
C490   C493    1.420   .     A
C490   C509    1.420   .     S
C491   C496    1.420   .     A
C491   C492    1.420   .     A
C492   C493    1.420   .     A
C493   C494    1.420   .     A
C494   C497    1.420   .     A
C494   C513    1.420   .     S
C495   C496    1.420   .     A
C495   H877    1.140   .     S
C496   C497    1.420   .     A
C497   C498    1.420   .     A
C498   C517    1.420   .     S
C498   H878    1.140   .     S
C499   C502    1.420   .     A
C499   H879    1.140   .     S
C500   C503    1.420   .     A
C500   C521    1.420   .     S
C500   H880    1.140   .     S
C501   C506    1.420   .     A
C501   C502    1.420   .     A
C502   C503    1.420   .     A
C503   C504    1.420   .     A
C504   C507    1.420   .     A
C504   C523    1.420   .     S
C505   C510    1.420   .     A
C505   C506    1.420   .     A
C506   C507    1.420   .     A
C507   C508    1.420   .     A
C508   C511    1.420   .     A
C508   C527    1.420   .     S
C509   C514    1.420   .     A
C509   C510    1.420   .     A
C510   C511    1.420   .     A
C511   C512    1.420   .     A
C512   C515    1.420   .     A
C512   C531    1.420   .     S
C513   C518    1.420   .     A
C513   C514    1.420   .     A
C514   C515    1.420   .     A
C515   C516    1.420   .     A
C516   C519    1.420   .     A
C516   C535    1.420   .     S
C517   C518    1.420   .     A
C517   H881    1.140   .     S
C518   C519    1.420   .     A
C519   C520    1.420   .     A
C520   C539    1.420   .     S
C520   H882    1.140   .     S
C521   C524    1.420   .     A
C521   H883    1.140   .     S
C522   C525    1.420   .     A
C522   C543    1.420   .     S
C522   H884    1.140   .     S
C523   C528    1.420   .     A
C523   C524    1.420   .     A
C524   C525    1.420   .     A
C525   C526    1.420   .     A
C526   C529    1.420   .     A
C526   C545    1.420   .     S
C527   C532    1.420   .     A
C527   C528    1.420   .     A
C528   C529    1.420   .     A
C529   C530    1.420   .     A
C530   C533    1.420   .     A
C530   C549    1.420   .     S
C531   C536    1.420   .     A
C531   C532    1.420   .     A
C532   C533    1.420   .     A
C533   C534    1.420   .     A
C534   C537    1.420   .     A
C534   C553    1.420   .     S
C535   C540    1.420   .     A
C535   C536    1.420   .     A
C536   C537    1.420   .     A
C537   C538    1.420   .     A
C538   C541    1.420   .     A
C538   C557    1.420   .     S
C539   C540    1.420   .     A
C539   H885    1.140   .     S
C540   C541    1.420   .     A
C541   C542    1.420   .     A
C542   C561    1.420   .     S
C542   H886    1.140   .     S
C543   C546    1.420   .     A
C543   H887    1.140   .     S
C544   C547    1.420   .     A
C544   C565    1.420   .     S
C544   H888    1.140   .     S
C545   C550    1.420   .     A
C545   C546    1.420   .     A
C546   C547    1.420   .     A
C547   C548    1.420   .     A
C548   C551    1.420   .     A
C548   C567    1.420   .     S
C549   C554    1.420   .     A
C549   C550    1.420   .     A
C550   C551    1.420   .     A
C551   C552    1.420   .     A
C552   C555    1.420   .     A
C552   C571    1.420   .     S
C553   C558    1.420   .     A
C553   C554    1.420   .     A
C554   C555    1.420   .     A
C555   C556    1.420   .     A
C556   C559    1.420   .     A
C556   C575    1.420   .     S
C557   C562    1.420   .     A
C557   C558    1.420   .     A
C558   C559    1.420   .     A
C559   C560    1.420   .     A
C560   C563    1.420   .     A
C560   C579    1.420   .     S
C561   C562    1.420   .     A
C561   H889    1.140   .     S
C562   C563    1.420   .     A
C563   C564    1.420   .     A
C564   C583    1.420   .     S
C564   H890    1.140   .     S
C565   C568    1.420   .     A
C565   H891    1.140   .     S
C566   C569    1.420   .     A
C566   C587    1.420   .     S
C566   H892    1.140   .     S
C567   C572    1.420   .     A
C567   C568    1.420   .     A
C568   C569    1.420   .     A
C569   C570    1.420   .     A
C570   C573    1.420   .     A
C570   C589    1.420   .     S
C571   C576    1.420   .     A
C571   C572    1.420   .     A
C572   C573    1.420   .     A
C573   C574    1.420   .     A
C574   C577    1.420   .     A
C574   C593    1.420   .     S
C575   C580    1.420   .     A
C575   C576    1.420   .     A
C576   C577    1.420   .     A
C577   C578    1.420   .     A
C578   C581    1.420   .     A
C578   C597    1.420   .     S
C579   C584    1.420   .     A
C579   C580    1.420   .     A
C580   C581    1.420   .     A
C581   C582    1.420   .     A
C582   C585    1.420   .     A
C582   C601    1.420   .     S
C583   C584    1.420   .     A
C583   H893    1.140   .     S
C584   C585    1.420   .     A
C585   C586    1.420   .     A
C586   C605    1.420   .     S
C586   H894    1.140   .     S
C587   C590    1.420   .     A
C587   H895    1.140   .     S
C588   C591    1.420   .     A
C588   C609    1.420   .     S
C588   H896    1.140   .     S
C589   C594    1.420   .     A
C589   C590    1.420   .     A
C590   C591    1.420   .     A
C591   C592    1.420   .     A
C592   C595    1.420   .     A
C592   C611    1.420   .     S
C593   C598    1.420   .     A
C593   C594    1.420   .     A
C594   C595    1.420   .     A
C595   C596    1.420   .     A
C596   C599    1.420   .     A
C596   C615    1.420   .     S
C597   C602    1.420   .     A
C597   C598    1.420   .     A
C598   C599    1.420   .     A
C599   C600    1.420   .     A
C600   C603    1.420   .     A
C600   C619    1.420   .     S
C601   C606    1.420   .     A
C601   C602    1.420   .     A
C602   C603    1.420   .     A
C603   C604    1.420   .     A
C604   C607    1.420   .     A
C604   C623    1.420   .     S
C605   C606    1.420   .     A
C605   H897    1.140   .     S
C606   C607    1.420   .     A
C607   C608    1.420   .     A
C608   C627    1.420   .     S
C608   H898    1.140   .     S
C609   C612    1.420   .     A
C609   H899    1.140   .     S
C610   C613    1.420   .     A
C610   N635    1.420   .     S
C610   H900    1.140   .     S
C611   C616    1.420   .     A
C611   C612    1.420   .     A
C612   C613    1.420   .     A
C613   C614    1.420   .     A
C614   C617    1.420   .     A
C614   N639    1.420   .     S
C615   C620    1.420   .     A
C615   C616    1.420   .     A
C616   C617    1.420   .     A
C617   C618    1.420   .     A
C618   C621    1.420   .     A
C618   N643    1.420   .     S
C619   C624    1.420   .     A
C619   C620    1.420   .     A
C620   C621    1.420   .     A
C621   C622    1.420   .     A
C622   C625    1.420   .     A
C622   N647    1.420   .     S
C623   C628    1.420   .     A
C623   C624    1.420   .     A
C624   C625    1.420   .     A
C625   C626    1.420   .     A
C626   C629    1.420   .     A
C626   N651    1.420   .     S
C627   C628    1.420   .     A
C627   H901    1.140   .     S
C628   C629    1.420   .     A
C629   C630    1.420   .     A
C630   N655    1.420   .     S
C630   H902    1.140   .     S
N631   N636    1.420   .     A
N631   N632    1.420   .     A
N631   H903    1.140   .     S
N632   N633    1.420   .     A
N632   H665    1.140   .     S
N633   N634    1.420   .     A
N633   H666    1.140   .     S
N634   N637    1.420   .     A
N634   N669    1.420   .     S
N635   N640    1.420   .     A
N635   N636    1.420   .     A
N636   N637    1.420   .     A
N637   N638    1.420   .     A
N638   N641    1.420   .     A
N638   N673    1.420   .     S
N639   N644    1.420   .     A
N639   N640    1.420   .     A
N640   N641    1.420   .     A
N641   N642    1.420   .     A
N642   N645    1.420   .     A
N642   N677    1.420   .     S
N643   N648    1.420   .     A
N643   N644    1.420   .     A
N644   N645    1.420   .     A
N645   N646    1.420   .     A
N646   N649    1.420   .     A
N646   N681    1.420   .     S
N647   N652    1.420   .     A
N647   N648    1.420   .     A
N648   N649    1.420   .     A
N649   N650    1.420   .     A
N650   N653    1.420   .     A
N650   N685    1.420   .     S
N651   N656    1.420   .     A
N651   N652    1.420   .     A
N652   N653    1.420   .     A
N653   N654    1.420   .     A
N654   N657    1.420   .     A
N654   N689    1.420   .     S
N655   N660    1.420   .     A
N655   N656    1.420   .     A
N656   N657    1.420   .     A
N657   N658    1.420   .     A
N658   N661    1.420   .     A
N658   N693    1.420   .     S
N659   N663    1.420   .     A
N659   N660    1.420   .     A
N659   H904    1.140   .     S
N660   N661    1.420   .     A
N661   N662    1.420   .     A
N662   N664    1.420   .     A
N662   N697    1.420   .     S
N663   N664    1.420   .     A
N663   H667    1.140   .     S
N664   H668    1.140   .     S
N669   N674    1.420   .     A
N669   N670    1.420   .     A
N670   N671    1.420   .     A
N670   H703    1.140   .     S
N671   N672    1.420   .     A
N671   H704    1.140   .     S
N672   N675    1.420   .     A
N672   N707    1.420   .     S
N673   N678    1.420   .     A
N673   N674    1.420   .     A
N674   N675    1.420   .     A
N675   N676    1.420   .     A
N676   N679    1.420   .     A
N676   N711    1.420   .     S
N677   N682    1.420   .     A
N677   N678    1.420   .     A
N678   N679    1.420   .     A
N679   N680    1.420   .     A
N680   N683    1.420   .     A
N680   N715    1.420   .     S
N681   N686    1.420   .     A
N681   N682    1.420   .     A
N682   N683    1.420   .     A
N683   N684    1.420   .     A
N684   N687    1.420   .     A
N684   N719    1.420   .     S
N685   N690    1.420   .     A
N685   N686    1.420   .     A
N686   N687    1.420   .     A
N687   N688    1.420   .     A
N688   N691    1.420   .     A
N688   N723    1.420   .     S
N689   N694    1.420   .     A
N689   N690    1.420   .     A
N690   N691    1.420   .     A
N691   N692    1.420   .     A
N692   N695    1.420   .     A
N692   N727    1.420   .     S
N693   N698    1.420   .     A
N693   N694    1.420   .     A
N694   N695    1.420   .     A
N695   N696    1.420   .     A
N696   N699    1.420   .     A
N696   N731    1.420   .     S
N697   N701    1.420   .     A
N697   N698    1.420   .     A
N698   N699    1.420   .     A
N699   N700    1.420   .     A
N700   N702    1.420   .     A
N700   N735    1.420   .     S
N701   N702    1.420   .     A
N701   H705    1.140   .     S
N702   H706    1.140   .     S
N707   N712    1.420   .     A
N707   N708    1.420   .     A
N708   N709    1.420   .     A
N708   H741    1.140   .     S
N709   N710    1.420   .     A
N709   H742    1.140   .     S
N710   N713    1.420   .     A
N710   N745    1.420   .     S
N711   N716    1.420   .     A
N711   N712    1.420   .     A
N712   N713    1.420   .     A
N713   N714    1.420   .     A
N714   N717    1.420   .     A
N714   N749    1.420   .     S
N715   N720    1.420   .     A
N715   N716    1.420   .     A
N716   N717    1.420   .     A
N717   N718    1.420   .     A
N718   N721    1.420   .     A
N718   N753    1.420   .     S
N719   N724    1.420   .     A
N719   N720    1.420   .     A
N720   N721    1.420   .     A
N721   N722    1.420   .     A
N722   N725    1.420   .     A
N722   N757    1.420   .     S
N723   N728    1.420   .     A
N723   N724    1.420   .     A
N724   N725    1.420   .     A
N725   N726    1.420   .     A
N726   N729    1.420   .     A
N726   N761    1.420   .     S
N727   N732    1.420   .     A
N727   N728    1.420   .     A
N728   N729    1.420   .     A
N729   N730    1.420   .     A
N730   N733    1.420   .     A
N730   N765    1.420   .     S
N731   N736    1.420   .     A
N731   N732    1.420   .     A
N732   N733    1.420   .     A
N733   N734    1.420   .     A
N734   N737    1.420   .     A
N734   N769    1.420   .     S
N735   N739    1.420   .     A
N735   N736    1.420   .     A
N736   N737    1.420   .     A
N737   N738    1.420   .     A
N738   N740    1.420   .     A
N738   N773    1.420   .     S
N739   N740    1.420   .     A
N739   H743    1.140   .     S
N740   H744    1.140   .     S
N745   N750    1.420   .     A
N745   N746    1.420   .     A
N746   N747    1.420   .     A
N746   H779    1.140   .     S
N747   N748    1.420   .     A
N747   H780    1.140   .     S
N748   N751    1.420   .     A
N748   N783    1.420   .     S
N749   N754    1.420   .     A
N749   N750    1.420   .     A
N750   N751    1.420   .     A
N751   N752    1.420   .     A
N752   N755    1.420   .     A
N752   N787    1.420   .     S
N753   N758    1.420   .     A
N753   N754    1.420   .     A
N754   N755    1.420   .     A
N755   N756    1.420   .     A
N756   N759    1.420   .     A
N756   N791    1.420   .     S
N757   N762    1.420   .     A
N757   N758    1.420   .     A
N758   N759    1.420   .     A
N759   N760    1.420   .     A
N760   N763    1.420   .     A
N760   N795    1.420   .     S
N761   N766    1.420   .     A
N761   N762    1.420   .     A
N762   N763    1.420   .     A
N763   N764    1.420   .     A
N764   N767    1.420   .     A
N764   N799    1.420   .     S
N765   N770    1.420   .     A
N765   N766    1.420   .     A
N766   N767    1.420   .     A
N767   N768    1.420   .     A
N768   N771    1.420   .     A
N768   N803    1.420   .     S
N769   N774    1.420   .     A
N769   N770    1.420   .     A
N770   N771    1.420   .     A
N771   N772    1.420   .     A
N772   N775    1.420   .     A
N772   N807    1.420   .     S
N773   N777    1.420   .     A
N773   N774    1.420   .     A
N774   N775    1.420   .     A
N775   N776    1.420   .     A
N776   N778    1.420   .     A
N776   N811    1.420   .     S
N777   N778    1.420   .     A
N777   H781    1.140   .     S
N778   H782    1.140   .     S
N783   N788    1.420   .     A
N783   N784    1.420   .     A
N784   N785    1.420   .     A
N784   H817    1.140   .     S
N785   N786    1.420   .     A
N785   H818    1.140   .     S
N786   N789    1.420   .     A
N786   N1      1.420   1_565 S
N787   N792    1.420   .     A
N787   N788    1.420   .     A
N788   N789    1.420   .     A
N789   N790    1.420   .     A
N790   N793    1.420   .     A
N790   N5      1.420   1_565 S
N791   N796    1.420   .     A
N791   N792    1.420   .     A
N792   N793    1.420   .     A
N793   N794    1.420   .     A
N794   N797    1.420   .     A
N794   N9      1.420   1_565 S
N795   N800    1.420   .     A
N795   N796    1.420   .     A
N796   N797    1.420   .     A
N797   N798    1.420   .     A
N798   N801    1.420   .     A
N798   N13     1.420   1_565 S
N799   N804    1.420   .     A
N799   N800    1.420   .     A
N800   N801    1.420   .     A
N801   N802    1.420   .     A
N802   N805    1.420   .     A
N802   N17     1.420   1_565 S
N803   N808    1.420   .     A
N803   N804    1.420   .     A
N804   N805    1.420   .     A
N805   N806    1.420   .     A
N806   N809    1.420   .     A
N806   N21     1.420   1_565 S
N807   N812    1.420   .     A
N807   N808    1.420   .     A
N808   N809    1.420   .     A
N809   N810    1.420   .     A
N810   N813    1.420   .     A
N810   N25     1.420   1_565 S
N811   N815    1.420   .     A
N811   N812    1.420   .     A
N812   N813    1.420   .     A
N813   N814    1.420   .     A
N814   N816    1.420   .     A
N814   N29     1.420   1_565 S
N815   N816    1.420   .     A
N815   H819    1.140   .     S
N816   H820    1.140   .     S
