data_29072005
_audit_creation_date              2020-04-13
_audit_creation_method            'Materials Studio'
_symmetry_space_group_name_H-M    'P1'
_symmetry_Int_Tables_number       1
_symmetry_cell_setting            triclinic
loop_
_symmetry_equiv_pos_as_xyz
  x,y,z
_cell_length_a                    60.0000
_cell_length_b                    127.8253
_cell_length_c                    10.0000
_cell_angle_alpha                 90.0000
_cell_angle_beta                  90.0000
_cell_angle_gamma                 90.0000
loop_
_atom_site_label
_atom_site_type_symbol
_atom_site_fract_x
_atom_site_fract_y
_atom_site_fract_z
_atom_site_U_iso_or_equiv
_atom_site_adp_type
_atom_site_occupancy
N1     N     0.22688   0.00558   0.50000   0.00000  Uiso   1.00
N2     N     0.20638   0.01114   0.50000   0.00000  Uiso   1.00
N3     N     0.20638   0.02225   0.50000   0.00000  Uiso   1.00
N4     N     0.22688   0.02780   0.50000   0.00000  Uiso   1.00
N5     N     0.26788   0.00558   0.50000   0.00000  Uiso   1.00
N6     N     0.24738   0.01114   0.50000   0.00000  Uiso   1.00
N7     N     0.24738   0.02225   0.50000   0.00000  Uiso   1.00
N8     N     0.26788   0.02780   0.50000   0.00000  Uiso   1.00
N9     N     0.30888   0.00558   0.50000   0.00000  Uiso   1.00
N10    N     0.28838   0.01114   0.50000   0.00000  Uiso   1.00
N11    N     0.28838   0.02225   0.50000   0.00000  Uiso   1.00
N12    N     0.30888   0.02780   0.50000   0.00000  Uiso   1.00
N13    N     0.34988   0.00558   0.50000   0.00000  Uiso   1.00
N14    N     0.32938   0.01114   0.50000   0.00000  Uiso   1.00
N15    N     0.32938   0.02225   0.50000   0.00000  Uiso   1.00
N16    N     0.34988   0.02780   0.50000   0.00000  Uiso   1.00
N17    N     0.39088   0.00558   0.50000   0.00000  Uiso   1.00
N18    N     0.37038   0.01114   0.50000   0.00000  Uiso   1.00
N19    N     0.37038   0.02225   0.50000   0.00000  Uiso   1.00
N20    N     0.39088   0.02780   0.50000   0.00000  Uiso   1.00
N21    N     0.43188   0.00558   0.50000   0.00000  Uiso   1.00
N22    N     0.41138   0.01114   0.50000   0.00000  Uiso   1.00
N23    N     0.41138   0.02225   0.50000   0.00000  Uiso   1.00
N24    N     0.43188   0.02780   0.50000   0.00000  Uiso   1.00
N25    N     0.47288   0.00558   0.50000   0.00000  Uiso   1.00
N26    N     0.45238   0.01114   0.50000   0.00000  Uiso   1.00
N27    N     0.45238   0.02225   0.50000   0.00000  Uiso   1.00
N28    N     0.47288   0.02780   0.50000   0.00000  Uiso   1.00
N29    N     0.51388   0.00558   0.50000   0.00000  Uiso   1.00
N30    N     0.49338   0.01114   0.50000   0.00000  Uiso   1.00
N31    N     0.49338   0.02225   0.50000   0.00000  Uiso   1.00
N32    N     0.51388   0.02780   0.50000   0.00000  Uiso   1.00
N33    N     0.55488   0.00558   0.50000   0.00000  Uiso   1.00
N34    N     0.53438   0.01114   0.50000   0.00000  Uiso   1.00
N35    N     0.53438   0.02225   0.50000   0.00000  Uiso   1.00
N36    N     0.55488   0.02780   0.50000   0.00000  Uiso   1.00
N37    N     0.59588   0.00558   0.50000   0.00000  Uiso   1.00
N38    N     0.57538   0.01114   0.50000   0.00000  Uiso   1.00
N39    N     0.57538   0.02225   0.50000   0.00000  Uiso   1.00
N40    N     0.59588   0.02780   0.50000   0.00000  Uiso   1.00
N41    N     0.63688   0.00558   0.50000   0.00000  Uiso   1.00
N42    N     0.61638   0.01114   0.50000   0.00000  Uiso   1.00
N43    N     0.61638   0.02225   0.50000   0.00000  Uiso   1.00
N44    N     0.63688   0.02780   0.50000   0.00000  Uiso   1.00
N45    N     0.67788   0.00558   0.50000   0.00000  Uiso   1.00
N46    N     0.65738   0.01114   0.50000   0.00000  Uiso   1.00
N47    N     0.65738   0.02225   0.50000   0.00000  Uiso   1.00
N48    N     0.67788   0.02780   0.50000   0.00000  Uiso   1.00
N49    N     0.71888   0.00558   0.50000   0.00000  Uiso   1.00
N50    N     0.69838   0.01114   0.50000   0.00000  Uiso   1.00
N51    N     0.69838   0.02225   0.50000   0.00000  Uiso   1.00
N52    N     0.71888   0.02780   0.50000   0.00000  Uiso   1.00
N53    N     0.75988   0.00558   0.50000   0.00000  Uiso   1.00
N54    N     0.73938   0.01114   0.50000   0.00000  Uiso   1.00
N55    N     0.73938   0.02225   0.50000   0.00000  Uiso   1.00
N56    N     0.75988   0.02780   0.50000   0.00000  Uiso   1.00
N57    N     0.78038   0.01114   0.50000   0.00000  Uiso   1.00
N58    N     0.78038   0.02225   0.50000   0.00000  Uiso   1.00
H59    H     0.18993   0.00668   0.50000   0.00000  Uiso   1.00
H60    H     0.18993   0.02671   0.50000   0.00000  Uiso   1.00
H61    H     0.79684   0.00668   0.50000   0.00000  Uiso   1.00
H62    H     0.79684   0.02671   0.50000   0.00000  Uiso   1.00
N63    N     0.22688   0.03892   0.50000   0.00000  Uiso   1.00
N64    N     0.20638   0.04447   0.50000   0.00000  Uiso   1.00
N65    N     0.20638   0.05558   0.50000   0.00000  Uiso   1.00
N66    N     0.22688   0.06114   0.50000   0.00000  Uiso   1.00
N67    N     0.26788   0.03892   0.50000   0.00000  Uiso   1.00
N68    N     0.24738   0.04447   0.50000   0.00000  Uiso   1.00
N69    N     0.24738   0.05558   0.50000   0.00000  Uiso   1.00
N70    N     0.26788   0.06114   0.50000   0.00000  Uiso   1.00
N71    N     0.30888   0.03892   0.50000   0.00000  Uiso   1.00
N72    N     0.28838   0.04447   0.50000   0.00000  Uiso   1.00
N73    N     0.28838   0.05558   0.50000   0.00000  Uiso   1.00
N74    N     0.30888   0.06114   0.50000   0.00000  Uiso   1.00
N75    N     0.34988   0.03892   0.50000   0.00000  Uiso   1.00
N76    N     0.32938   0.04447   0.50000   0.00000  Uiso   1.00
N77    N     0.32938   0.05558   0.50000   0.00000  Uiso   1.00
N78    N     0.34988   0.06114   0.50000   0.00000  Uiso   1.00
N79    N     0.39088   0.03892   0.50000   0.00000  Uiso   1.00
N80    N     0.37038   0.04447   0.50000   0.00000  Uiso   1.00
N81    N     0.37038   0.05558   0.50000   0.00000  Uiso   1.00
N82    N     0.39088   0.06114   0.50000   0.00000  Uiso   1.00
N83    N     0.43188   0.03892   0.50000   0.00000  Uiso   1.00
N84    N     0.41138   0.04447   0.50000   0.00000  Uiso   1.00
N85    N     0.41138   0.05558   0.50000   0.00000  Uiso   1.00
N86    N     0.43188   0.06114   0.50000   0.00000  Uiso   1.00
N87    N     0.47288   0.03892   0.50000   0.00000  Uiso   1.00
N88    N     0.45238   0.04447   0.50000   0.00000  Uiso   1.00
N89    N     0.45238   0.05558   0.50000   0.00000  Uiso   1.00
N90    N     0.47288   0.06114   0.50000   0.00000  Uiso   1.00
N91    N     0.51388   0.03892   0.50000   0.00000  Uiso   1.00
N92    N     0.49338   0.04447   0.50000   0.00000  Uiso   1.00
N93    N     0.49338   0.05558   0.50000   0.00000  Uiso   1.00
N94    N     0.51388   0.06114   0.50000   0.00000  Uiso   1.00
N95    N     0.55488   0.03892   0.50000   0.00000  Uiso   1.00
N96    N     0.53438   0.04447   0.50000   0.00000  Uiso   1.00
N97    N     0.53438   0.05558   0.50000   0.00000  Uiso   1.00
N98    N     0.55488   0.06114   0.50000   0.00000  Uiso   1.00
N99    N     0.59588   0.03892   0.50000   0.00000  Uiso   1.00
N100   N     0.57538   0.04447   0.50000   0.00000  Uiso   1.00
N101   N     0.57538   0.05558   0.50000   0.00000  Uiso   1.00
N102   N     0.59588   0.06114   0.50000   0.00000  Uiso   1.00
N103   N     0.63688   0.03892   0.50000   0.00000  Uiso   1.00
N104   N     0.61638   0.04447   0.50000   0.00000  Uiso   1.00
N105   N     0.61638   0.05558   0.50000   0.00000  Uiso   1.00
N106   N     0.63688   0.06114   0.50000   0.00000  Uiso   1.00
N107   N     0.67788   0.03892   0.50000   0.00000  Uiso   1.00
N108   N     0.65738   0.04447   0.50000   0.00000  Uiso   1.00
N109   N     0.65738   0.05558   0.50000   0.00000  Uiso   1.00
N110   N     0.67788   0.06114   0.50000   0.00000  Uiso   1.00
N111   N     0.71888   0.03892   0.50000   0.00000  Uiso   1.00
N112   N     0.69838   0.04447   0.50000   0.00000  Uiso   1.00
N113   N     0.69838   0.05558   0.50000   0.00000  Uiso   1.00
N114   N     0.71888   0.06114   0.50000   0.00000  Uiso   1.00
N115   N     0.75988   0.03892   0.50000   0.00000  Uiso   1.00
N116   N     0.73938   0.04447   0.50000   0.00000  Uiso   1.00
N117   N     0.73938   0.05558   0.50000   0.00000  Uiso   1.00
N118   N     0.75988   0.06114   0.50000   0.00000  Uiso   1.00
N119   N     0.78038   0.04447   0.50000   0.00000  Uiso   1.00
N120   N     0.78038   0.05558   0.50000   0.00000  Uiso   1.00
H121   H     0.18993   0.04001   0.50000   0.00000  Uiso   1.00
H122   H     0.18993   0.06004   0.50000   0.00000  Uiso   1.00
H123   H     0.79684   0.04001   0.50000   0.00000  Uiso   1.00
H124   H     0.79684   0.06004   0.50000   0.00000  Uiso   1.00
N125   N     0.22688   0.07225   0.50000   0.00000  Uiso   1.00
N126   N     0.20638   0.07780   0.50000   0.00000  Uiso   1.00
N127   N     0.20638   0.08892   0.50000   0.00000  Uiso   1.00
N128   N     0.22688   0.09447   0.50000   0.00000  Uiso   1.00
N129   N     0.26788   0.07225   0.50000   0.00000  Uiso   1.00
N130   N     0.24738   0.07780   0.50000   0.00000  Uiso   1.00
N131   N     0.24738   0.08892   0.50000   0.00000  Uiso   1.00
N132   N     0.26788   0.09447   0.50000   0.00000  Uiso   1.00
N133   N     0.30888   0.07225   0.50000   0.00000  Uiso   1.00
N134   N     0.28838   0.07780   0.50000   0.00000  Uiso   1.00
N135   N     0.28838   0.08892   0.50000   0.00000  Uiso   1.00
N136   N     0.30888   0.09447   0.50000   0.00000  Uiso   1.00
N137   N     0.34988   0.07225   0.50000   0.00000  Uiso   1.00
N138   N     0.32938   0.07780   0.50000   0.00000  Uiso   1.00
N139   N     0.32938   0.08892   0.50000   0.00000  Uiso   1.00
N140   N     0.34988   0.09447   0.50000   0.00000  Uiso   1.00
N141   N     0.39088   0.07225   0.50000   0.00000  Uiso   1.00
N142   N     0.37038   0.07780   0.50000   0.00000  Uiso   1.00
N143   N     0.37038   0.08892   0.50000   0.00000  Uiso   1.00
N144   N     0.39088   0.09447   0.50000   0.00000  Uiso   1.00
N145   N     0.43188   0.07225   0.50000   0.00000  Uiso   1.00
N146   N     0.41138   0.07780   0.50000   0.00000  Uiso   1.00
N147   N     0.41138   0.08892   0.50000   0.00000  Uiso   1.00
N148   N     0.43188   0.09447   0.50000   0.00000  Uiso   1.00
N149   N     0.47288   0.07225   0.50000   0.00000  Uiso   1.00
N150   N     0.45238   0.07780   0.50000   0.00000  Uiso   1.00
N151   N     0.45238   0.08892   0.50000   0.00000  Uiso   1.00
N152   N     0.47288   0.09447   0.50000   0.00000  Uiso   1.00
N153   N     0.51388   0.07225   0.50000   0.00000  Uiso   1.00
N154   N     0.49338   0.07780   0.50000   0.00000  Uiso   1.00
N155   N     0.49338   0.08892   0.50000   0.00000  Uiso   1.00
N156   N     0.51388   0.09447   0.50000   0.00000  Uiso   1.00
N157   N     0.55488   0.07225   0.50000   0.00000  Uiso   1.00
N158   N     0.53438   0.07780   0.50000   0.00000  Uiso   1.00
N159   N     0.53438   0.08892   0.50000   0.00000  Uiso   1.00
N160   N     0.55488   0.09447   0.50000   0.00000  Uiso   1.00
N161   N     0.59588   0.07225   0.50000   0.00000  Uiso   1.00
N162   N     0.57538   0.07780   0.50000   0.00000  Uiso   1.00
N163   N     0.57538   0.08892   0.50000   0.00000  Uiso   1.00
N164   N     0.59588   0.09447   0.50000   0.00000  Uiso   1.00
N165   N     0.63688   0.07225   0.50000   0.00000  Uiso   1.00
N166   N     0.61638   0.07780   0.50000   0.00000  Uiso   1.00
N167   N     0.61638   0.08892   0.50000   0.00000  Uiso   1.00
N168   N     0.63688   0.09447   0.50000   0.00000  Uiso   1.00
N169   N     0.67788   0.07225   0.50000   0.00000  Uiso   1.00
N170   N     0.65738   0.07780   0.50000   0.00000  Uiso   1.00
N171   N     0.65738   0.08892   0.50000   0.00000  Uiso   1.00
N172   N     0.67788   0.09447   0.50000   0.00000  Uiso   1.00
N173   N     0.71888   0.07225   0.50000   0.00000  Uiso   1.00
N174   N     0.69838   0.07780   0.50000   0.00000  Uiso   1.00
N175   N     0.69838   0.08892   0.50000   0.00000  Uiso   1.00
N176   N     0.71888   0.09447   0.50000   0.00000  Uiso   1.00
N177   N     0.75988   0.07225   0.50000   0.00000  Uiso   1.00
N178   N     0.73938   0.07780   0.50000   0.00000  Uiso   1.00
N179   N     0.73938   0.08892   0.50000   0.00000  Uiso   1.00
N180   N     0.75988   0.09447   0.50000   0.00000  Uiso   1.00
N181   N     0.78038   0.07780   0.50000   0.00000  Uiso   1.00
N182   N     0.78038   0.08892   0.50000   0.00000  Uiso   1.00
H183   H     0.18993   0.07335   0.50000   0.00000  Uiso   1.00
H184   H     0.18993   0.09337   0.50000   0.00000  Uiso   1.00
H185   H     0.79684   0.07335   0.50000   0.00000  Uiso   1.00
H186   H     0.79684   0.09337   0.50000   0.00000  Uiso   1.00
N187   N     0.22688   0.10558   0.50000   0.00000  Uiso   1.00
N188   N     0.20638   0.11114   0.50000   0.00000  Uiso   1.00
N189   N     0.20638   0.12225   0.50000   0.00000  Uiso   1.00
N190   N     0.22688   0.12780   0.50000   0.00000  Uiso   1.00
N191   N     0.26788   0.10558   0.50000   0.00000  Uiso   1.00
N192   N     0.24738   0.11114   0.50000   0.00000  Uiso   1.00
N193   N     0.24738   0.12225   0.50000   0.00000  Uiso   1.00
N194   N     0.26788   0.12780   0.50000   0.00000  Uiso   1.00
N195   N     0.30888   0.10558   0.50000   0.00000  Uiso   1.00
N196   N     0.28838   0.11114   0.50000   0.00000  Uiso   1.00
N197   N     0.28838   0.12225   0.50000   0.00000  Uiso   1.00
N198   N     0.30888   0.12780   0.50000   0.00000  Uiso   1.00
N199   N     0.34988   0.10558   0.50000   0.00000  Uiso   1.00
N200   N     0.32938   0.11114   0.50000   0.00000  Uiso   1.00
N201   N     0.32938   0.12225   0.50000   0.00000  Uiso   1.00
N202   N     0.34988   0.12780   0.50000   0.00000  Uiso   1.00
N203   N     0.39088   0.10558   0.50000   0.00000  Uiso   1.00
N204   N     0.37038   0.11114   0.50000   0.00000  Uiso   1.00
N205   N     0.37038   0.12225   0.50000   0.00000  Uiso   1.00
N206   N     0.39088   0.12780   0.50000   0.00000  Uiso   1.00
N207   N     0.43188   0.10558   0.50000   0.00000  Uiso   1.00
N208   N     0.41138   0.11114   0.50000   0.00000  Uiso   1.00
N209   N     0.41138   0.12225   0.50000   0.00000  Uiso   1.00
N210   N     0.43188   0.12780   0.50000   0.00000  Uiso   1.00
N211   N     0.47288   0.10558   0.50000   0.00000  Uiso   1.00
N212   N     0.45238   0.11114   0.50000   0.00000  Uiso   1.00
N213   N     0.45238   0.12225   0.50000   0.00000  Uiso   1.00
N214   N     0.47288   0.12780   0.50000   0.00000  Uiso   1.00
N215   N     0.51388   0.10558   0.50000   0.00000  Uiso   1.00
N216   N     0.49338   0.11114   0.50000   0.00000  Uiso   1.00
N217   N     0.49338   0.12225   0.50000   0.00000  Uiso   1.00
N218   N     0.51388   0.12780   0.50000   0.00000  Uiso   1.00
N219   N     0.55488   0.10558   0.50000   0.00000  Uiso   1.00
N220   N     0.53438   0.11114   0.50000   0.00000  Uiso   1.00
N221   N     0.53438   0.12225   0.50000   0.00000  Uiso   1.00
N222   N     0.55488   0.12780   0.50000   0.00000  Uiso   1.00
N223   N     0.59588   0.10558   0.50000   0.00000  Uiso   1.00
N224   N     0.57538   0.11114   0.50000   0.00000  Uiso   1.00
N225   N     0.57538   0.12225   0.50000   0.00000  Uiso   1.00
N226   N     0.59588   0.12780   0.50000   0.00000  Uiso   1.00
N227   N     0.63688   0.10558   0.50000   0.00000  Uiso   1.00
N228   N     0.61638   0.11114   0.50000   0.00000  Uiso   1.00
N229   N     0.61638   0.12225   0.50000   0.00000  Uiso   1.00
N230   N     0.63688   0.12780   0.50000   0.00000  Uiso   1.00
N231   N     0.67788   0.10558   0.50000   0.00000  Uiso   1.00
N232   N     0.65738   0.11114   0.50000   0.00000  Uiso   1.00
N233   N     0.65738   0.12225   0.50000   0.00000  Uiso   1.00
N234   N     0.67788   0.12780   0.50000   0.00000  Uiso   1.00
N235   N     0.71888   0.10558   0.50000   0.00000  Uiso   1.00
N236   N     0.69838   0.11114   0.50000   0.00000  Uiso   1.00
N237   N     0.69838   0.12225   0.50000   0.00000  Uiso   1.00
N238   N     0.71888   0.12780   0.50000   0.00000  Uiso   1.00
N239   N     0.75988   0.10558   0.50000   0.00000  Uiso   1.00
N240   N     0.73938   0.11114   0.50000   0.00000  Uiso   1.00
N241   N     0.73938   0.12225   0.50000   0.00000  Uiso   1.00
N242   N     0.75988   0.12780   0.50000   0.00000  Uiso   1.00
N243   N     0.78038   0.11114   0.50000   0.00000  Uiso   1.00
N244   N     0.78038   0.12225   0.50000   0.00000  Uiso   1.00
H245   H     0.18993   0.10668   0.50000   0.00000  Uiso   1.00
H246   H     0.18993   0.12671   0.50000   0.00000  Uiso   1.00
H247   H     0.79684   0.10668   0.50000   0.00000  Uiso   1.00
H248   H     0.79684   0.12671   0.50000   0.00000  Uiso   1.00
N249   N     0.22688   0.13892   0.50000   0.00000  Uiso   1.00
N250   N     0.20638   0.14447   0.50000   0.00000  Uiso   1.00
N251   N     0.20638   0.15558   0.50000   0.00000  Uiso   1.00
N252   N     0.22688   0.16114   0.50000   0.00000  Uiso   1.00
N253   N     0.26788   0.13892   0.50000   0.00000  Uiso   1.00
N254   N     0.24738   0.14447   0.50000   0.00000  Uiso   1.00
N255   N     0.24738   0.15558   0.50000   0.00000  Uiso   1.00
N256   N     0.26788   0.16114   0.50000   0.00000  Uiso   1.00
N257   N     0.30888   0.13892   0.50000   0.00000  Uiso   1.00
N258   N     0.28838   0.14447   0.50000   0.00000  Uiso   1.00
N259   N     0.28838   0.15558   0.50000   0.00000  Uiso   1.00
N260   N     0.30888   0.16114   0.50000   0.00000  Uiso   1.00
N261   N     0.34988   0.13892   0.50000   0.00000  Uiso   1.00
N262   N     0.32938   0.14447   0.50000   0.00000  Uiso   1.00
N263   N     0.32938   0.15558   0.50000   0.00000  Uiso   1.00
N264   N     0.34988   0.16114   0.50000   0.00000  Uiso   1.00
N265   N     0.39088   0.13892   0.50000   0.00000  Uiso   1.00
N266   N     0.37038   0.14447   0.50000   0.00000  Uiso   1.00
N267   N     0.37038   0.15558   0.50000   0.00000  Uiso   1.00
N268   N     0.39088   0.16114   0.50000   0.00000  Uiso   1.00
N269   N     0.43188   0.13892   0.50000   0.00000  Uiso   1.00
N270   N     0.41138   0.14447   0.50000   0.00000  Uiso   1.00
N271   N     0.41138   0.15558   0.50000   0.00000  Uiso   1.00
N272   N     0.43188   0.16114   0.50000   0.00000  Uiso   1.00
N273   N     0.47288   0.13892   0.50000   0.00000  Uiso   1.00
N274   N     0.45238   0.14447   0.50000   0.00000  Uiso   1.00
N275   N     0.45238   0.15558   0.50000   0.00000  Uiso   1.00
N276   N     0.47288   0.16114   0.50000   0.00000  Uiso   1.00
N277   N     0.51388   0.13892   0.50000   0.00000  Uiso   1.00
N278   N     0.49338   0.14447   0.50000   0.00000  Uiso   1.00
N279   N     0.49338   0.15558   0.50000   0.00000  Uiso   1.00
N280   N     0.51388   0.16114   0.50000   0.00000  Uiso   1.00
N281   N     0.55488   0.13892   0.50000   0.00000  Uiso   1.00
N282   N     0.53438   0.14447   0.50000   0.00000  Uiso   1.00
N283   N     0.53438   0.15558   0.50000   0.00000  Uiso   1.00
N284   N     0.55488   0.16114   0.50000   0.00000  Uiso   1.00
N285   N     0.59588   0.13892   0.50000   0.00000  Uiso   1.00
N286   N     0.57538   0.14447   0.50000   0.00000  Uiso   1.00
N287   N     0.57538   0.15558   0.50000   0.00000  Uiso   1.00
N288   N     0.59588   0.16114   0.50000   0.00000  Uiso   1.00
N289   N     0.63688   0.13892   0.50000   0.00000  Uiso   1.00
N290   N     0.61638   0.14447   0.50000   0.00000  Uiso   1.00
N291   N     0.61638   0.15558   0.50000   0.00000  Uiso   1.00
N292   N     0.63688   0.16114   0.50000   0.00000  Uiso   1.00
N293   N     0.67788   0.13892   0.50000   0.00000  Uiso   1.00
N294   N     0.65738   0.14447   0.50000   0.00000  Uiso   1.00
N295   N     0.65738   0.15558   0.50000   0.00000  Uiso   1.00
N296   N     0.67788   0.16114   0.50000   0.00000  Uiso   1.00
N297   N     0.71888   0.13892   0.50000   0.00000  Uiso   1.00
N298   N     0.69838   0.14447   0.50000   0.00000  Uiso   1.00
N299   N     0.69838   0.15558   0.50000   0.00000  Uiso   1.00
N300   N     0.71888   0.16114   0.50000   0.00000  Uiso   1.00
N301   N     0.75988   0.13892   0.50000   0.00000  Uiso   1.00
N302   N     0.73938   0.14447   0.50000   0.00000  Uiso   1.00
N303   N     0.73938   0.15558   0.50000   0.00000  Uiso   1.00
N304   N     0.75988   0.16114   0.50000   0.00000  Uiso   1.00
N305   N     0.78038   0.14447   0.50000   0.00000  Uiso   1.00
N306   N     0.78038   0.15558   0.50000   0.00000  Uiso   1.00
H307   H     0.18993   0.14001   0.50000   0.00000  Uiso   1.00
H308   H     0.18993   0.16004   0.50000   0.00000  Uiso   1.00
H309   H     0.79684   0.14001   0.50000   0.00000  Uiso   1.00
H310   H     0.79684   0.16004   0.50000   0.00000  Uiso   1.00
C311   C     0.43188   0.17225   0.50000   0.00000  Uiso   1.00
C312   C     0.43188   0.19447   0.50000   0.00000  Uiso   1.00
C313   C     0.47288   0.17225   0.50000   0.00000  Uiso   1.00
C314   C     0.45238   0.17780   0.50000   0.00000  Uiso   1.00
C315   C     0.45238   0.18892   0.50000   0.00000  Uiso   1.00
C316   C     0.47288   0.19447   0.50000   0.00000  Uiso   1.00
C317   C     0.51388   0.17225   0.50000   0.00000  Uiso   1.00
C318   C     0.49338   0.17780   0.50000   0.00000  Uiso   1.00
C319   C     0.49338   0.18892   0.50000   0.00000  Uiso   1.00
C320   C     0.51388   0.19447   0.50000   0.00000  Uiso   1.00
C321   C     0.55488   0.17225   0.50000   0.00000  Uiso   1.00
C322   C     0.53438   0.17780   0.50000   0.00000  Uiso   1.00
C323   C     0.53438   0.18892   0.50000   0.00000  Uiso   1.00
C324   C     0.55488   0.19447   0.50000   0.00000  Uiso   1.00
C325   C     0.43188   0.20558   0.50000   0.00000  Uiso   1.00
C326   C     0.43188   0.22780   0.50000   0.00000  Uiso   1.00
C327   C     0.47288   0.20558   0.50000   0.00000  Uiso   1.00
C328   C     0.45238   0.21114   0.50000   0.00000  Uiso   1.00
C329   C     0.45238   0.22225   0.50000   0.00000  Uiso   1.00
C330   C     0.47288   0.22780   0.50000   0.00000  Uiso   1.00
C331   C     0.51388   0.20558   0.50000   0.00000  Uiso   1.00
C332   C     0.49338   0.21114   0.50000   0.00000  Uiso   1.00
C333   C     0.49338   0.22225   0.50000   0.00000  Uiso   1.00
C334   C     0.51388   0.22780   0.50000   0.00000  Uiso   1.00
C335   C     0.55488   0.20558   0.50000   0.00000  Uiso   1.00
C336   C     0.53438   0.21114   0.50000   0.00000  Uiso   1.00
C337   C     0.53438   0.22225   0.50000   0.00000  Uiso   1.00
C338   C     0.55488   0.22780   0.50000   0.00000  Uiso   1.00
C339   C     0.43188   0.23892   0.50000   0.00000  Uiso   1.00
C340   C     0.43188   0.26114   0.50000   0.00000  Uiso   1.00
C341   C     0.47288   0.23892   0.50000   0.00000  Uiso   1.00
C342   C     0.45238   0.24447   0.50000   0.00000  Uiso   1.00
C343   C     0.45238   0.25558   0.50000   0.00000  Uiso   1.00
C344   C     0.47288   0.26114   0.50000   0.00000  Uiso   1.00
C345   C     0.51388   0.23892   0.50000   0.00000  Uiso   1.00
C346   C     0.49338   0.24447   0.50000   0.00000  Uiso   1.00
C347   C     0.49338   0.25558   0.50000   0.00000  Uiso   1.00
C348   C     0.51388   0.26114   0.50000   0.00000  Uiso   1.00
C349   C     0.55488   0.23892   0.50000   0.00000  Uiso   1.00
C350   C     0.53438   0.24447   0.50000   0.00000  Uiso   1.00
C351   C     0.53438   0.25558   0.50000   0.00000  Uiso   1.00
C352   C     0.55488   0.26114   0.50000   0.00000  Uiso   1.00
C353   C     0.43188   0.27225   0.50000   0.00000  Uiso   1.00
C354   C     0.43188   0.29447   0.50000   0.00000  Uiso   1.00
C355   C     0.47288   0.27225   0.50000   0.00000  Uiso   1.00
C356   C     0.45238   0.27780   0.50000   0.00000  Uiso   1.00
C357   C     0.45238   0.28892   0.50000   0.00000  Uiso   1.00
C358   C     0.47288   0.29447   0.50000   0.00000  Uiso   1.00
C359   C     0.51388   0.27225   0.50000   0.00000  Uiso   1.00
C360   C     0.49338   0.27780   0.50000   0.00000  Uiso   1.00
C361   C     0.49338   0.28892   0.50000   0.00000  Uiso   1.00
C362   C     0.51388   0.29447   0.50000   0.00000  Uiso   1.00
C363   C     0.55488   0.27225   0.50000   0.00000  Uiso   1.00
C364   C     0.53438   0.27780   0.50000   0.00000  Uiso   1.00
C365   C     0.53438   0.28892   0.50000   0.00000  Uiso   1.00
C366   C     0.55488   0.29447   0.50000   0.00000  Uiso   1.00
C367   C     0.43188   0.30558   0.50000   0.00000  Uiso   1.00
C368   C     0.43188   0.32780   0.50000   0.00000  Uiso   1.00
C369   C     0.47288   0.30558   0.50000   0.00000  Uiso   1.00
C370   C     0.45238   0.31114   0.50000   0.00000  Uiso   1.00
C371   C     0.45238   0.32225   0.50000   0.00000  Uiso   1.00
C372   C     0.47288   0.32780   0.50000   0.00000  Uiso   1.00
C373   C     0.51388   0.30558   0.50000   0.00000  Uiso   1.00
C374   C     0.49338   0.31114   0.50000   0.00000  Uiso   1.00
C375   C     0.49338   0.32225   0.50000   0.00000  Uiso   1.00
C376   C     0.51388   0.32780   0.50000   0.00000  Uiso   1.00
C377   C     0.55488   0.30558   0.50000   0.00000  Uiso   1.00
C378   C     0.53438   0.31114   0.50000   0.00000  Uiso   1.00
C379   C     0.53438   0.32225   0.50000   0.00000  Uiso   1.00
C380   C     0.55488   0.32780   0.50000   0.00000  Uiso   1.00
C381   C     0.43188   0.33892   0.50000   0.00000  Uiso   1.00
C382   C     0.43188   0.36114   0.50000   0.00000  Uiso   1.00
C383   C     0.47288   0.33892   0.50000   0.00000  Uiso   1.00
C384   C     0.45238   0.34447   0.50000   0.00000  Uiso   1.00
C385   C     0.45238   0.35558   0.50000   0.00000  Uiso   1.00
C386   C     0.47288   0.36114   0.50000   0.00000  Uiso   1.00
C387   C     0.51388   0.33892   0.50000   0.00000  Uiso   1.00
C388   C     0.49338   0.34447   0.50000   0.00000  Uiso   1.00
C389   C     0.49338   0.35558   0.50000   0.00000  Uiso   1.00
C390   C     0.51388   0.36114   0.50000   0.00000  Uiso   1.00
C391   C     0.55488   0.33892   0.50000   0.00000  Uiso   1.00
C392   C     0.53438   0.34447   0.50000   0.00000  Uiso   1.00
C393   C     0.53438   0.35558   0.50000   0.00000  Uiso   1.00
C394   C     0.55488   0.36114   0.50000   0.00000  Uiso   1.00
C395   C     0.43188   0.37225   0.50000   0.00000  Uiso   1.00
C396   C     0.43188   0.39447   0.50000   0.00000  Uiso   1.00
C397   C     0.47288   0.37225   0.50000   0.00000  Uiso   1.00
C398   C     0.45238   0.37780   0.50000   0.00000  Uiso   1.00
C399   C     0.45238   0.38892   0.50000   0.00000  Uiso   1.00
C400   C     0.47288   0.39447   0.50000   0.00000  Uiso   1.00
C401   C     0.51388   0.37225   0.50000   0.00000  Uiso   1.00
C402   C     0.49338   0.37780   0.50000   0.00000  Uiso   1.00
C403   C     0.49338   0.38892   0.50000   0.00000  Uiso   1.00
C404   C     0.51388   0.39447   0.50000   0.00000  Uiso   1.00
C405   C     0.55488   0.37225   0.50000   0.00000  Uiso   1.00
C406   C     0.53438   0.37780   0.50000   0.00000  Uiso   1.00
C407   C     0.53438   0.38892   0.50000   0.00000  Uiso   1.00
C408   C     0.55488   0.39447   0.50000   0.00000  Uiso   1.00
C409   C     0.43188   0.40558   0.50000   0.00000  Uiso   1.00
C410   C     0.43188   0.42780   0.50000   0.00000  Uiso   1.00
C411   C     0.47288   0.40558   0.50000   0.00000  Uiso   1.00
C412   C     0.45238   0.41114   0.50000   0.00000  Uiso   1.00
C413   C     0.45238   0.42225   0.50000   0.00000  Uiso   1.00
C414   C     0.47288   0.42780   0.50000   0.00000  Uiso   1.00
C415   C     0.51388   0.40558   0.50000   0.00000  Uiso   1.00
C416   C     0.49338   0.41114   0.50000   0.00000  Uiso   1.00
C417   C     0.49338   0.42225   0.50000   0.00000  Uiso   1.00
C418   C     0.51388   0.42780   0.50000   0.00000  Uiso   1.00
C419   C     0.55488   0.40558   0.50000   0.00000  Uiso   1.00
C420   C     0.53438   0.41114   0.50000   0.00000  Uiso   1.00
C421   C     0.53438   0.42225   0.50000   0.00000  Uiso   1.00
C422   C     0.55488   0.42780   0.50000   0.00000  Uiso   1.00
C423   C     0.43188   0.43892   0.50000   0.00000  Uiso   1.00
C424   C     0.43188   0.46114   0.50000   0.00000  Uiso   1.00
C425   C     0.47288   0.43892   0.50000   0.00000  Uiso   1.00
C426   C     0.45238   0.44447   0.50000   0.00000  Uiso   1.00
C427   C     0.45238   0.45558   0.50000   0.00000  Uiso   1.00
C428   C     0.47288   0.46114   0.50000   0.00000  Uiso   1.00
C429   C     0.51388   0.43892   0.50000   0.00000  Uiso   1.00
C430   C     0.49338   0.44447   0.50000   0.00000  Uiso   1.00
C431   C     0.49338   0.45558   0.50000   0.00000  Uiso   1.00
C432   C     0.51388   0.46114   0.50000   0.00000  Uiso   1.00
C433   C     0.55488   0.43892   0.50000   0.00000  Uiso   1.00
C434   C     0.53438   0.44447   0.50000   0.00000  Uiso   1.00
C435   C     0.53438   0.45558   0.50000   0.00000  Uiso   1.00
C436   C     0.55488   0.46114   0.50000   0.00000  Uiso   1.00
C437   C     0.43188   0.47225   0.50000   0.00000  Uiso   1.00
C438   C     0.43188   0.49447   0.50000   0.00000  Uiso   1.00
C439   C     0.47288   0.47225   0.50000   0.00000  Uiso   1.00
C440   C     0.45238   0.47780   0.50000   0.00000  Uiso   1.00
C441   C     0.45238   0.48892   0.50000   0.00000  Uiso   1.00
C442   C     0.47288   0.49447   0.50000   0.00000  Uiso   1.00
C443   C     0.51388   0.47225   0.50000   0.00000  Uiso   1.00
C444   C     0.49338   0.47780   0.50000   0.00000  Uiso   1.00
C445   C     0.49338   0.48892   0.50000   0.00000  Uiso   1.00
C446   C     0.51388   0.49447   0.50000   0.00000  Uiso   1.00
C447   C     0.55488   0.47225   0.50000   0.00000  Uiso   1.00
C448   C     0.53438   0.47780   0.50000   0.00000  Uiso   1.00
C449   C     0.53438   0.48892   0.50000   0.00000  Uiso   1.00
C450   C     0.55488   0.49447   0.50000   0.00000  Uiso   1.00
C451   C     0.43188   0.50558   0.50000   0.00000  Uiso   1.00
C452   C     0.43188   0.52780   0.50000   0.00000  Uiso   1.00
C453   C     0.47288   0.50558   0.50000   0.00000  Uiso   1.00
C454   C     0.45238   0.51114   0.50000   0.00000  Uiso   1.00
C455   C     0.45238   0.52225   0.50000   0.00000  Uiso   1.00
C456   C     0.47288   0.52780   0.50000   0.00000  Uiso   1.00
C457   C     0.51388   0.50558   0.50000   0.00000  Uiso   1.00
C458   C     0.49338   0.51114   0.50000   0.00000  Uiso   1.00
C459   C     0.49338   0.52225   0.50000   0.00000  Uiso   1.00
C460   C     0.51388   0.52780   0.50000   0.00000  Uiso   1.00
C461   C     0.55488   0.50558   0.50000   0.00000  Uiso   1.00
C462   C     0.53438   0.51114   0.50000   0.00000  Uiso   1.00
C463   C     0.53438   0.52225   0.50000   0.00000  Uiso   1.00
C464   C     0.55488   0.52780   0.50000   0.00000  Uiso   1.00
C465   C     0.43188   0.53892   0.50000   0.00000  Uiso   1.00
C466   C     0.43188   0.56114   0.50000   0.00000  Uiso   1.00
C467   C     0.47288   0.53892   0.50000   0.00000  Uiso   1.00
C468   C     0.45238   0.54447   0.50000   0.00000  Uiso   1.00
C469   C     0.45238   0.55558   0.50000   0.00000  Uiso   1.00
C470   C     0.47288   0.56114   0.50000   0.00000  Uiso   1.00
C471   C     0.51388   0.53892   0.50000   0.00000  Uiso   1.00
C472   C     0.49338   0.54447   0.50000   0.00000  Uiso   1.00
C473   C     0.49338   0.55558   0.50000   0.00000  Uiso   1.00
C474   C     0.51388   0.56114   0.50000   0.00000  Uiso   1.00
C475   C     0.55488   0.53892   0.50000   0.00000  Uiso   1.00
C476   C     0.53438   0.54447   0.50000   0.00000  Uiso   1.00
C477   C     0.53438   0.55558   0.50000   0.00000  Uiso   1.00
C478   C     0.55488   0.56114   0.50000   0.00000  Uiso   1.00
C479   C     0.43188   0.57225   0.50000   0.00000  Uiso   1.00
C480   C     0.43188   0.59447   0.50000   0.00000  Uiso   1.00
C481   C     0.47288   0.57225   0.50000   0.00000  Uiso   1.00
C482   C     0.45238   0.57780   0.50000   0.00000  Uiso   1.00
C483   C     0.45238   0.58892   0.50000   0.00000  Uiso   1.00
C484   C     0.47288   0.59447   0.50000   0.00000  Uiso   1.00
C485   C     0.51388   0.57225   0.50000   0.00000  Uiso   1.00
C486   C     0.49338   0.57780   0.50000   0.00000  Uiso   1.00
C487   C     0.49338   0.58892   0.50000   0.00000  Uiso   1.00
C488   C     0.51388   0.59447   0.50000   0.00000  Uiso   1.00
C489   C     0.55488   0.57225   0.50000   0.00000  Uiso   1.00
C490   C     0.53438   0.57780   0.50000   0.00000  Uiso   1.00
C491   C     0.53438   0.58892   0.50000   0.00000  Uiso   1.00
C492   C     0.55488   0.59447   0.50000   0.00000  Uiso   1.00
C493   C     0.43188   0.60558   0.50000   0.00000  Uiso   1.00
C494   C     0.43188   0.62780   0.50000   0.00000  Uiso   1.00
C495   C     0.47288   0.60558   0.50000   0.00000  Uiso   1.00
C496   C     0.45238   0.61114   0.50000   0.00000  Uiso   1.00
C497   C     0.45238   0.62225   0.50000   0.00000  Uiso   1.00
C498   C     0.47288   0.62780   0.50000   0.00000  Uiso   1.00
C499   C     0.51388   0.60558   0.50000   0.00000  Uiso   1.00
C500   C     0.49338   0.61114   0.50000   0.00000  Uiso   1.00
C501   C     0.49338   0.62225   0.50000   0.00000  Uiso   1.00
C502   C     0.51388   0.62780   0.50000   0.00000  Uiso   1.00
C503   C     0.55488   0.60558   0.50000   0.00000  Uiso   1.00
C504   C     0.53438   0.61114   0.50000   0.00000  Uiso   1.00
C505   C     0.53438   0.62225   0.50000   0.00000  Uiso   1.00
C506   C     0.55488   0.62780   0.50000   0.00000  Uiso   1.00
C507   C     0.43188   0.63892   0.50000   0.00000  Uiso   1.00
C508   C     0.43188   0.66114   0.50000   0.00000  Uiso   1.00
C509   C     0.47288   0.63892   0.50000   0.00000  Uiso   1.00
C510   C     0.45238   0.64447   0.50000   0.00000  Uiso   1.00
C511   C     0.45238   0.65558   0.50000   0.00000  Uiso   1.00
C512   C     0.47288   0.66114   0.50000   0.00000  Uiso   1.00
C513   C     0.51388   0.63892   0.50000   0.00000  Uiso   1.00
C514   C     0.49338   0.64447   0.50000   0.00000  Uiso   1.00
C515   C     0.49338   0.65558   0.50000   0.00000  Uiso   1.00
C516   C     0.51388   0.66114   0.50000   0.00000  Uiso   1.00
C517   C     0.55488   0.63892   0.50000   0.00000  Uiso   1.00
C518   C     0.53438   0.64447   0.50000   0.00000  Uiso   1.00
C519   C     0.53438   0.65558   0.50000   0.00000  Uiso   1.00
C520   C     0.55488   0.66114   0.50000   0.00000  Uiso   1.00
C521   C     0.43188   0.67225   0.50000   0.00000  Uiso   1.00
C522   C     0.43188   0.69447   0.50000   0.00000  Uiso   1.00
C523   C     0.47288   0.67225   0.50000   0.00000  Uiso   1.00
C524   C     0.45238   0.67780   0.50000   0.00000  Uiso   1.00
C525   C     0.45238   0.68892   0.50000   0.00000  Uiso   1.00
C526   C     0.47288   0.69447   0.50000   0.00000  Uiso   1.00
C527   C     0.51388   0.67225   0.50000   0.00000  Uiso   1.00
C528   C     0.49338   0.67780   0.50000   0.00000  Uiso   1.00
C529   C     0.49338   0.68892   0.50000   0.00000  Uiso   1.00
C530   C     0.51388   0.69447   0.50000   0.00000  Uiso   1.00
C531   C     0.55488   0.67225   0.50000   0.00000  Uiso   1.00
C532   C     0.53438   0.67780   0.50000   0.00000  Uiso   1.00
C533   C     0.53438   0.68892   0.50000   0.00000  Uiso   1.00
C534   C     0.55488   0.69447   0.50000   0.00000  Uiso   1.00
C535   C     0.43188   0.70558   0.50000   0.00000  Uiso   1.00
C536   C     0.43188   0.72780   0.50000   0.00000  Uiso   1.00
C537   C     0.47288   0.70558   0.50000   0.00000  Uiso   1.00
C538   C     0.45238   0.71114   0.50000   0.00000  Uiso   1.00
C539   C     0.45238   0.72225   0.50000   0.00000  Uiso   1.00
C540   C     0.47288   0.72780   0.50000   0.00000  Uiso   1.00
C541   C     0.51388   0.70558   0.50000   0.00000  Uiso   1.00
C542   C     0.49338   0.71114   0.50000   0.00000  Uiso   1.00
C543   C     0.49338   0.72225   0.50000   0.00000  Uiso   1.00
C544   C     0.51388   0.72780   0.50000   0.00000  Uiso   1.00
C545   C     0.55488   0.70558   0.50000   0.00000  Uiso   1.00
C546   C     0.53438   0.71114   0.50000   0.00000  Uiso   1.00
C547   C     0.53438   0.72225   0.50000   0.00000  Uiso   1.00
C548   C     0.55488   0.72780   0.50000   0.00000  Uiso   1.00
C549   C     0.43188   0.73892   0.50000   0.00000  Uiso   1.00
C550   C     0.43188   0.76114   0.50000   0.00000  Uiso   1.00
C551   C     0.47288   0.73892   0.50000   0.00000  Uiso   1.00
C552   C     0.45238   0.74447   0.50000   0.00000  Uiso   1.00
C553   C     0.45238   0.75558   0.50000   0.00000  Uiso   1.00
C554   C     0.47288   0.76114   0.50000   0.00000  Uiso   1.00
C555   C     0.51388   0.73892   0.50000   0.00000  Uiso   1.00
C556   C     0.49338   0.74447   0.50000   0.00000  Uiso   1.00
C557   C     0.49338   0.75558   0.50000   0.00000  Uiso   1.00
C558   C     0.51388   0.76114   0.50000   0.00000  Uiso   1.00
C559   C     0.55488   0.73892   0.50000   0.00000  Uiso   1.00
C560   C     0.53438   0.74447   0.50000   0.00000  Uiso   1.00
C561   C     0.53438   0.75558   0.50000   0.00000  Uiso   1.00
C562   C     0.55488   0.76114   0.50000   0.00000  Uiso   1.00
C563   C     0.43188   0.77225   0.50000   0.00000  Uiso   1.00
C564   C     0.43188   0.79447   0.50000   0.00000  Uiso   1.00
C565   C     0.47288   0.77225   0.50000   0.00000  Uiso   1.00
C566   C     0.45238   0.77780   0.50000   0.00000  Uiso   1.00
C567   C     0.45238   0.78892   0.50000   0.00000  Uiso   1.00
C568   C     0.47288   0.79447   0.50000   0.00000  Uiso   1.00
C569   C     0.51388   0.77225   0.50000   0.00000  Uiso   1.00
C570   C     0.49338   0.77780   0.50000   0.00000  Uiso   1.00
C571   C     0.49338   0.78892   0.50000   0.00000  Uiso   1.00
C572   C     0.51388   0.79447   0.50000   0.00000  Uiso   1.00
C573   C     0.55488   0.77225   0.50000   0.00000  Uiso   1.00
C574   C     0.53438   0.77780   0.50000   0.00000  Uiso   1.00
C575   C     0.53438   0.78892   0.50000   0.00000  Uiso   1.00
C576   C     0.55488   0.79447   0.50000   0.00000  Uiso   1.00
C577   C     0.43188   0.80558   0.50000   0.00000  Uiso   1.00
C578   C     0.43188   0.82780   0.50000   0.00000  Uiso   1.00
C579   C     0.47288   0.80558   0.50000   0.00000  Uiso   1.00
C580   C     0.45238   0.81114   0.50000   0.00000  Uiso   1.00
C581   C     0.45238   0.82225   0.50000   0.00000  Uiso   1.00
C582   C     0.47288   0.82780   0.50000   0.00000  Uiso   1.00
C583   C     0.51388   0.80558   0.50000   0.00000  Uiso   1.00
C584   C     0.49338   0.81114   0.50000   0.00000  Uiso   1.00
C585   C     0.49338   0.82225   0.50000   0.00000  Uiso   1.00
C586   C     0.51388   0.82780   0.50000   0.00000  Uiso   1.00
C587   C     0.55488   0.80558   0.50000   0.00000  Uiso   1.00
C588   C     0.53438   0.81114   0.50000   0.00000  Uiso   1.00
C589   C     0.53438   0.82225   0.50000   0.00000  Uiso   1.00
C590   C     0.55488   0.82780   0.50000   0.00000  Uiso   1.00
N591   N     0.22688   0.83892   0.50000   0.00000  Uiso   1.00
N592   N     0.20638   0.84447   0.50000   0.00000  Uiso   1.00
N593   N     0.20638   0.85558   0.50000   0.00000  Uiso   1.00
N594   N     0.22688   0.86114   0.50000   0.00000  Uiso   1.00
N595   N     0.26788   0.83892   0.50000   0.00000  Uiso   1.00
N596   N     0.24738   0.84447   0.50000   0.00000  Uiso   1.00
N597   N     0.24738   0.85558   0.50000   0.00000  Uiso   1.00
N598   N     0.26788   0.86114   0.50000   0.00000  Uiso   1.00
N599   N     0.30888   0.83892   0.50000   0.00000  Uiso   1.00
N600   N     0.28838   0.84447   0.50000   0.00000  Uiso   1.00
N601   N     0.28838   0.85558   0.50000   0.00000  Uiso   1.00
N602   N     0.30888   0.86114   0.50000   0.00000  Uiso   1.00
N603   N     0.34988   0.83892   0.50000   0.00000  Uiso   1.00
N604   N     0.32938   0.84447   0.50000   0.00000  Uiso   1.00
N605   N     0.32938   0.85558   0.50000   0.00000  Uiso   1.00
N606   N     0.34988   0.86114   0.50000   0.00000  Uiso   1.00
N607   N     0.39088   0.83892   0.50000   0.00000  Uiso   1.00
N608   N     0.37038   0.84447   0.50000   0.00000  Uiso   1.00
N609   N     0.37038   0.85558   0.50000   0.00000  Uiso   1.00
N610   N     0.39088   0.86114   0.50000   0.00000  Uiso   1.00
N611   N     0.43188   0.83892   0.50000   0.00000  Uiso   1.00
N612   N     0.41138   0.84447   0.50000   0.00000  Uiso   1.00
N613   N     0.41138   0.85558   0.50000   0.00000  Uiso   1.00
N614   N     0.43188   0.86114   0.50000   0.00000  Uiso   1.00
N615   N     0.47288   0.83892   0.50000   0.00000  Uiso   1.00
N616   N     0.45238   0.84447   0.50000   0.00000  Uiso   1.00
N617   N     0.45238   0.85558   0.50000   0.00000  Uiso   1.00
N618   N     0.47288   0.86114   0.50000   0.00000  Uiso   1.00
N619   N     0.51388   0.83892   0.50000   0.00000  Uiso   1.00
N620   N     0.49338   0.84447   0.50000   0.00000  Uiso   1.00
N621   N     0.49338   0.85558   0.50000   0.00000  Uiso   1.00
N622   N     0.51388   0.86114   0.50000   0.00000  Uiso   1.00
N623   N     0.55488   0.83892   0.50000   0.00000  Uiso   1.00
N624   N     0.53438   0.84447   0.50000   0.00000  Uiso   1.00
N625   N     0.53438   0.85558   0.50000   0.00000  Uiso   1.00
N626   N     0.55488   0.86114   0.50000   0.00000  Uiso   1.00
N627   N     0.59588   0.83892   0.50000   0.00000  Uiso   1.00
N628   N     0.57538   0.84447   0.50000   0.00000  Uiso   1.00
N629   N     0.57538   0.85558   0.50000   0.00000  Uiso   1.00
N630   N     0.59588   0.86114   0.50000   0.00000  Uiso   1.00
N631   N     0.63688   0.83892   0.50000   0.00000  Uiso   1.00
N632   N     0.61638   0.84447   0.50000   0.00000  Uiso   1.00
N633   N     0.61638   0.85558   0.50000   0.00000  Uiso   1.00
N634   N     0.63688   0.86114   0.50000   0.00000  Uiso   1.00
N635   N     0.67788   0.83892   0.50000   0.00000  Uiso   1.00
N636   N     0.65738   0.84447   0.50000   0.00000  Uiso   1.00
N637   N     0.65738   0.85558   0.50000   0.00000  Uiso   1.00
N638   N     0.67788   0.86114   0.50000   0.00000  Uiso   1.00
N639   N     0.71888   0.83892   0.50000   0.00000  Uiso   1.00
N640   N     0.69838   0.84447   0.50000   0.00000  Uiso   1.00
N641   N     0.69838   0.85558   0.50000   0.00000  Uiso   1.00
N642   N     0.71888   0.86114   0.50000   0.00000  Uiso   1.00
N643   N     0.75988   0.83892   0.50000   0.00000  Uiso   1.00
N644   N     0.73938   0.84447   0.50000   0.00000  Uiso   1.00
N645   N     0.73938   0.85558   0.50000   0.00000  Uiso   1.00
N646   N     0.75988   0.86114   0.50000   0.00000  Uiso   1.00
N647   N     0.78038   0.84447   0.50000   0.00000  Uiso   1.00
N648   N     0.78038   0.85558   0.50000   0.00000  Uiso   1.00
H649   H     0.18993   0.84001   0.50000   0.00000  Uiso   1.00
H650   H     0.18993   0.86004   0.50000   0.00000  Uiso   1.00
H651   H     0.79684   0.84001   0.50000   0.00000  Uiso   1.00
H652   H     0.79684   0.86004   0.50000   0.00000  Uiso   1.00
N653   N     0.22688   0.87225   0.50000   0.00000  Uiso   1.00
N654   N     0.20638   0.87780   0.50000   0.00000  Uiso   1.00
N655   N     0.20638   0.88892   0.50000   0.00000  Uiso   1.00
N656   N     0.22688   0.89447   0.50000   0.00000  Uiso   1.00
N657   N     0.26788   0.87225   0.50000   0.00000  Uiso   1.00
N658   N     0.24738   0.87780   0.50000   0.00000  Uiso   1.00
N659   N     0.24738   0.88892   0.50000   0.00000  Uiso   1.00
N660   N     0.26788   0.89447   0.50000   0.00000  Uiso   1.00
N661   N     0.30888   0.87225   0.50000   0.00000  Uiso   1.00
N662   N     0.28838   0.87780   0.50000   0.00000  Uiso   1.00
N663   N     0.28838   0.88892   0.50000   0.00000  Uiso   1.00
N664   N     0.30888   0.89447   0.50000   0.00000  Uiso   1.00
N665   N     0.34988   0.87225   0.50000   0.00000  Uiso   1.00
N666   N     0.32938   0.87780   0.50000   0.00000  Uiso   1.00
N667   N     0.32938   0.88892   0.50000   0.00000  Uiso   1.00
N668   N     0.34988   0.89447   0.50000   0.00000  Uiso   1.00
N669   N     0.39088   0.87225   0.50000   0.00000  Uiso   1.00
N670   N     0.37038   0.87780   0.50000   0.00000  Uiso   1.00
N671   N     0.37038   0.88892   0.50000   0.00000  Uiso   1.00
N672   N     0.39088   0.89447   0.50000   0.00000  Uiso   1.00
N673   N     0.43188   0.87225   0.50000   0.00000  Uiso   1.00
N674   N     0.41138   0.87780   0.50000   0.00000  Uiso   1.00
N675   N     0.41138   0.88892   0.50000   0.00000  Uiso   1.00
N676   N     0.43188   0.89447   0.50000   0.00000  Uiso   1.00
N677   N     0.47288   0.87225   0.50000   0.00000  Uiso   1.00
N678   N     0.45238   0.87780   0.50000   0.00000  Uiso   1.00
N679   N     0.45238   0.88892   0.50000   0.00000  Uiso   1.00
N680   N     0.47288   0.89447   0.50000   0.00000  Uiso   1.00
N681   N     0.51388   0.87225   0.50000   0.00000  Uiso   1.00
N682   N     0.49338   0.87780   0.50000   0.00000  Uiso   1.00
N683   N     0.49338   0.88892   0.50000   0.00000  Uiso   1.00
N684   N     0.51388   0.89447   0.50000   0.00000  Uiso   1.00
N685   N     0.55488   0.87225   0.50000   0.00000  Uiso   1.00
N686   N     0.53438   0.87780   0.50000   0.00000  Uiso   1.00
N687   N     0.53438   0.88892   0.50000   0.00000  Uiso   1.00
N688   N     0.55488   0.89447   0.50000   0.00000  Uiso   1.00
N689   N     0.59588   0.87225   0.50000   0.00000  Uiso   1.00
N690   N     0.57538   0.87780   0.50000   0.00000  Uiso   1.00
N691   N     0.57538   0.88892   0.50000   0.00000  Uiso   1.00
N692   N     0.59588   0.89447   0.50000   0.00000  Uiso   1.00
N693   N     0.63688   0.87225   0.50000   0.00000  Uiso   1.00
N694   N     0.61638   0.87780   0.50000   0.00000  Uiso   1.00
N695   N     0.61638   0.88892   0.50000   0.00000  Uiso   1.00
N696   N     0.63688   0.89447   0.50000   0.00000  Uiso   1.00
N697   N     0.67788   0.87225   0.50000   0.00000  Uiso   1.00
N698   N     0.65738   0.87780   0.50000   0.00000  Uiso   1.00
N699   N     0.65738   0.88892   0.50000   0.00000  Uiso   1.00
N700   N     0.67788   0.89447   0.50000   0.00000  Uiso   1.00
N701   N     0.71888   0.87225   0.50000   0.00000  Uiso   1.00
N702   N     0.69838   0.87780   0.50000   0.00000  Uiso   1.00
N703   N     0.69838   0.88892   0.50000   0.00000  Uiso   1.00
N704   N     0.71888   0.89447   0.50000   0.00000  Uiso   1.00
N705   N     0.75988   0.87225   0.50000   0.00000  Uiso   1.00
N706   N     0.73938   0.87780   0.50000   0.00000  Uiso   1.00
N707   N     0.73938   0.88892   0.50000   0.00000  Uiso   1.00
N708   N     0.75988   0.89447   0.50000   0.00000  Uiso   1.00
N709   N     0.78038   0.87780   0.50000   0.00000  Uiso   1.00
N710   N     0.78038   0.88892   0.50000   0.00000  Uiso   1.00
H711   H     0.18993   0.87335   0.50000   0.00000  Uiso   1.00
H712   H     0.18993   0.89337   0.50000   0.00000  Uiso   1.00
H713   H     0.79684   0.87335   0.50000   0.00000  Uiso   1.00
H714   H     0.79684   0.89337   0.50000   0.00000  Uiso   1.00
N715   N     0.22688   0.90558   0.50000   0.00000  Uiso   1.00
N716   N     0.20638   0.91114   0.50000   0.00000  Uiso   1.00
N717   N     0.20638   0.92225   0.50000   0.00000  Uiso   1.00
N718   N     0.22688   0.92780   0.50000   0.00000  Uiso   1.00
N719   N     0.26788   0.90558   0.50000   0.00000  Uiso   1.00
N720   N     0.24738   0.91114   0.50000   0.00000  Uiso   1.00
N721   N     0.24738   0.92225   0.50000   0.00000  Uiso   1.00
N722   N     0.26788   0.92780   0.50000   0.00000  Uiso   1.00
N723   N     0.30888   0.90558   0.50000   0.00000  Uiso   1.00
N724   N     0.28838   0.91114   0.50000   0.00000  Uiso   1.00
N725   N     0.28838   0.92225   0.50000   0.00000  Uiso   1.00
N726   N     0.30888   0.92780   0.50000   0.00000  Uiso   1.00
N727   N     0.34988   0.90558   0.50000   0.00000  Uiso   1.00
N728   N     0.32938   0.91114   0.50000   0.00000  Uiso   1.00
N729   N     0.32938   0.92225   0.50000   0.00000  Uiso   1.00
N730   N     0.34988   0.92780   0.50000   0.00000  Uiso   1.00
N731   N     0.39088   0.90558   0.50000   0.00000  Uiso   1.00
N732   N     0.37038   0.91114   0.50000   0.00000  Uiso   1.00
N733   N     0.37038   0.92225   0.50000   0.00000  Uiso   1.00
N734   N     0.39088   0.92780   0.50000   0.00000  Uiso   1.00
N735   N     0.43188   0.90558   0.50000   0.00000  Uiso   1.00
N736   N     0.41138   0.91114   0.50000   0.00000  Uiso   1.00
N737   N     0.41138   0.92225   0.50000   0.00000  Uiso   1.00
N738   N     0.43188   0.92780   0.50000   0.00000  Uiso   1.00
N739   N     0.47288   0.90558   0.50000   0.00000  Uiso   1.00
N740   N     0.45238   0.91114   0.50000   0.00000  Uiso   1.00
N741   N     0.45238   0.92225   0.50000   0.00000  Uiso   1.00
N742   N     0.47288   0.92780   0.50000   0.00000  Uiso   1.00
N743   N     0.51388   0.90558   0.50000   0.00000  Uiso   1.00
N744   N     0.49338   0.91114   0.50000   0.00000  Uiso   1.00
N745   N     0.49338   0.92225   0.50000   0.00000  Uiso   1.00
N746   N     0.51388   0.92780   0.50000   0.00000  Uiso   1.00
N747   N     0.55488   0.90558   0.50000   0.00000  Uiso   1.00
N748   N     0.53438   0.91114   0.50000   0.00000  Uiso   1.00
N749   N     0.53438   0.92225   0.50000   0.00000  Uiso   1.00
N750   N     0.55488   0.92780   0.50000   0.00000  Uiso   1.00
N751   N     0.59588   0.90558   0.50000   0.00000  Uiso   1.00
N752   N     0.57538   0.91114   0.50000   0.00000  Uiso   1.00
N753   N     0.57538   0.92225   0.50000   0.00000  Uiso   1.00
N754   N     0.59588   0.92780   0.50000   0.00000  Uiso   1.00
N755   N     0.63688   0.90558   0.50000   0.00000  Uiso   1.00
N756   N     0.61638   0.91114   0.50000   0.00000  Uiso   1.00
N757   N     0.61638   0.92225   0.50000   0.00000  Uiso   1.00
N758   N     0.63688   0.92780   0.50000   0.00000  Uiso   1.00
N759   N     0.67788   0.90558   0.50000   0.00000  Uiso   1.00
N760   N     0.65738   0.91114   0.50000   0.00000  Uiso   1.00
N761   N     0.65738   0.92225   0.50000   0.00000  Uiso   1.00
N762   N     0.67788   0.92780   0.50000   0.00000  Uiso   1.00
N763   N     0.71888   0.90558   0.50000   0.00000  Uiso   1.00
N764   N     0.69838   0.91114   0.50000   0.00000  Uiso   1.00
N765   N     0.69838   0.92225   0.50000   0.00000  Uiso   1.00
N766   N     0.71888   0.92780   0.50000   0.00000  Uiso   1.00
N767   N     0.75988   0.90558   0.50000   0.00000  Uiso   1.00
N768   N     0.73938   0.91114   0.50000   0.00000  Uiso   1.00
N769   N     0.73938   0.92225   0.50000   0.00000  Uiso   1.00
N770   N     0.75988   0.92780   0.50000   0.00000  Uiso   1.00
N771   N     0.78038   0.91114   0.50000   0.00000  Uiso   1.00
N772   N     0.78038   0.92225   0.50000   0.00000  Uiso   1.00
H773   H     0.18993   0.90668   0.50000   0.00000  Uiso   1.00
H774   H     0.18993   0.92671   0.50000   0.00000  Uiso   1.00
H775   H     0.79684   0.90668   0.50000   0.00000  Uiso   1.00
H776   H     0.79684   0.92671   0.50000   0.00000  Uiso   1.00
N777   N     0.22688   0.93892   0.50000   0.00000  Uiso   1.00
N778   N     0.20638   0.94447   0.50000   0.00000  Uiso   1.00
N779   N     0.20638   0.95558   0.50000   0.00000  Uiso   1.00
N780   N     0.22688   0.96114   0.50000   0.00000  Uiso   1.00
N781   N     0.26788   0.93892   0.50000   0.00000  Uiso   1.00
N782   N     0.24738   0.94447   0.50000   0.00000  Uiso   1.00
N783   N     0.24738   0.95558   0.50000   0.00000  Uiso   1.00
N784   N     0.26788   0.96114   0.50000   0.00000  Uiso   1.00
N785   N     0.30888   0.93892   0.50000   0.00000  Uiso   1.00
N786   N     0.28838   0.94447   0.50000   0.00000  Uiso   1.00
N787   N     0.28838   0.95558   0.50000   0.00000  Uiso   1.00
N788   N     0.30888   0.96114   0.50000   0.00000  Uiso   1.00
N789   N     0.34988   0.93892   0.50000   0.00000  Uiso   1.00
N790   N     0.32938   0.94447   0.50000   0.00000  Uiso   1.00
N791   N     0.32938   0.95558   0.50000   0.00000  Uiso   1.00
N792   N     0.34988   0.96114   0.50000   0.00000  Uiso   1.00
N793   N     0.39088   0.93892   0.50000   0.00000  Uiso   1.00
N794   N     0.37038   0.94447   0.50000   0.00000  Uiso   1.00
N795   N     0.37038   0.95558   0.50000   0.00000  Uiso   1.00
N796   N     0.39088   0.96114   0.50000   0.00000  Uiso   1.00
N797   N     0.43188   0.93892   0.50000   0.00000  Uiso   1.00
N798   N     0.41138   0.94447   0.50000   0.00000  Uiso   1.00
N799   N     0.41138   0.95558   0.50000   0.00000  Uiso   1.00
N800   N     0.43188   0.96114   0.50000   0.00000  Uiso   1.00
N801   N     0.47288   0.93892   0.50000   0.00000  Uiso   1.00
N802   N     0.45238   0.94447   0.50000   0.00000  Uiso   1.00
N803   N     0.45238   0.95558   0.50000   0.00000  Uiso   1.00
N804   N     0.47288   0.96114   0.50000   0.00000  Uiso   1.00
N805   N     0.51388   0.93892   0.50000   0.00000  Uiso   1.00
N806   N     0.49338   0.94447   0.50000   0.00000  Uiso   1.00
N807   N     0.49338   0.95558   0.50000   0.00000  Uiso   1.00
N808   N     0.51388   0.96114   0.50000   0.00000  Uiso   1.00
N809   N     0.55488   0.93892   0.50000   0.00000  Uiso   1.00
N810   N     0.53438   0.94447   0.50000   0.00000  Uiso   1.00
N811   N     0.53438   0.95558   0.50000   0.00000  Uiso   1.00
N812   N     0.55488   0.96114   0.50000   0.00000  Uiso   1.00
N813   N     0.59588   0.93892   0.50000   0.00000  Uiso   1.00
N814   N     0.57538   0.94447   0.50000   0.00000  Uiso   1.00
N815   N     0.57538   0.95558   0.50000   0.00000  Uiso   1.00
N816   N     0.59588   0.96114   0.50000   0.00000  Uiso   1.00
N817   N     0.63688   0.93892   0.50000   0.00000  Uiso   1.00
N818   N     0.61638   0.94447   0.50000   0.00000  Uiso   1.00
N819   N     0.61638   0.95558   0.50000   0.00000  Uiso   1.00
N820   N     0.63688   0.96114   0.50000   0.00000  Uiso   1.00
N821   N     0.67788   0.93892   0.50000   0.00000  Uiso   1.00
N822   N     0.65738   0.94447   0.50000   0.00000  Uiso   1.00
N823   N     0.65738   0.95558   0.50000   0.00000  Uiso   1.00
N824   N     0.67788   0.96114   0.50000   0.00000  Uiso   1.00
N825   N     0.71888   0.93892   0.50000   0.00000  Uiso   1.00
N826   N     0.69838   0.94447   0.50000   0.00000  Uiso   1.00
N827   N     0.69838   0.95558   0.50000   0.00000  Uiso   1.00
N828   N     0.71888   0.96114   0.50000   0.00000  Uiso   1.00
N829   N     0.75988   0.93892   0.50000   0.00000  Uiso   1.00
N830   N     0.73938   0.94447   0.50000   0.00000  Uiso   1.00
N831   N     0.73938   0.95558   0.50000   0.00000  Uiso   1.00
N832   N     0.75988   0.96114   0.50000   0.00000  Uiso   1.00
N833   N     0.78038   0.94447   0.50000   0.00000  Uiso   1.00
N834   N     0.78038   0.95558   0.50000   0.00000  Uiso   1.00
H835   H     0.18993   0.94001   0.50000   0.00000  Uiso   1.00
H836   H     0.18993   0.96004   0.50000   0.00000  Uiso   1.00
H837   H     0.79684   0.94001   0.50000   0.00000  Uiso   1.00
H838   H     0.79684   0.96004   0.50000   0.00000  Uiso   1.00
N839   N     0.22688   0.97225   0.50000   0.00000  Uiso   1.00
N840   N     0.20638   0.97780   0.50000   0.00000  Uiso   1.00
N841   N     0.20638   0.98892   0.50000   0.00000  Uiso   1.00
N842   N     0.22688   0.99447   0.50000   0.00000  Uiso   1.00
N843   N     0.26788   0.97225   0.50000   0.00000  Uiso   1.00
N844   N     0.24738   0.97780   0.50000   0.00000  Uiso   1.00
N845   N     0.24738   0.98892   0.50000   0.00000  Uiso   1.00
N846   N     0.26788   0.99447   0.50000   0.00000  Uiso   1.00
N847   N     0.30888   0.97225   0.50000   0.00000  Uiso   1.00
N848   N     0.28838   0.97780   0.50000   0.00000  Uiso   1.00
N849   N     0.28838   0.98892   0.50000   0.00000  Uiso   1.00
N850   N     0.30888   0.99447   0.50000   0.00000  Uiso   1.00
N851   N     0.34988   0.97225   0.50000   0.00000  Uiso   1.00
N852   N     0.32938   0.97780   0.50000   0.00000  Uiso   1.00
N853   N     0.32938   0.98892   0.50000   0.00000  Uiso   1.00
N854   N     0.34988   0.99447   0.50000   0.00000  Uiso   1.00
N855   N     0.39088   0.97225   0.50000   0.00000  Uiso   1.00
N856   N     0.37038   0.97780   0.50000   0.00000  Uiso   1.00
N857   N     0.37038   0.98892   0.50000   0.00000  Uiso   1.00
N858   N     0.39088   0.99447   0.50000   0.00000  Uiso   1.00
N859   N     0.43188   0.97225   0.50000   0.00000  Uiso   1.00
N860   N     0.41138   0.97780   0.50000   0.00000  Uiso   1.00
N861   N     0.41138   0.98892   0.50000   0.00000  Uiso   1.00
N862   N     0.43188   0.99447   0.50000   0.00000  Uiso   1.00
N863   N     0.47288   0.97225   0.50000   0.00000  Uiso   1.00
N864   N     0.45238   0.97780   0.50000   0.00000  Uiso   1.00
N865   N     0.45238   0.98892   0.50000   0.00000  Uiso   1.00
N866   N     0.47288   0.99447   0.50000   0.00000  Uiso   1.00
N867   N     0.51388   0.97225   0.50000   0.00000  Uiso   1.00
N868   N     0.49338   0.97780   0.50000   0.00000  Uiso   1.00
N869   N     0.49338   0.98892   0.50000   0.00000  Uiso   1.00
N870   N     0.51388   0.99447   0.50000   0.00000  Uiso   1.00
N871   N     0.55488   0.97225   0.50000   0.00000  Uiso   1.00
N872   N     0.53438   0.97780   0.50000   0.00000  Uiso   1.00
N873   N     0.53438   0.98892   0.50000   0.00000  Uiso   1.00
N874   N     0.55488   0.99447   0.50000   0.00000  Uiso   1.00
N875   N     0.59588   0.97225   0.50000   0.00000  Uiso   1.00
N876   N     0.57538   0.97780   0.50000   0.00000  Uiso   1.00
N877   N     0.57538   0.98892   0.50000   0.00000  Uiso   1.00
N878   N     0.59588   0.99447   0.50000   0.00000  Uiso   1.00
N879   N     0.63688   0.97225   0.50000   0.00000  Uiso   1.00
N880   N     0.61638   0.97780   0.50000   0.00000  Uiso   1.00
N881   N     0.61638   0.98892   0.50000   0.00000  Uiso   1.00
N882   N     0.63688   0.99447   0.50000   0.00000  Uiso   1.00
N883   N     0.67788   0.97225   0.50000   0.00000  Uiso   1.00
N884   N     0.65738   0.97780   0.50000   0.00000  Uiso   1.00
N885   N     0.65738   0.98892   0.50000   0.00000  Uiso   1.00
N886   N     0.67788   0.99447   0.50000   0.00000  Uiso   1.00
N887   N     0.71888   0.97225   0.50000   0.00000  Uiso   1.00
N888   N     0.69838   0.97780   0.50000   0.00000  Uiso   1.00
N889   N     0.69838   0.98892   0.50000   0.00000  Uiso   1.00
N890   N     0.71888   0.99447   0.50000   0.00000  Uiso   1.00
N891   N     0.75988   0.97225   0.50000   0.00000  Uiso   1.00
N892   N     0.73938   0.97780   0.50000   0.00000  Uiso   1.00
N893   N     0.73938   0.98892   0.50000   0.00000  Uiso   1.00
N894   N     0.75988   0.99447   0.50000   0.00000  Uiso   1.00
N895   N     0.78038   0.97780   0.50000   0.00000  Uiso   1.00
N896   N     0.78038   0.98892   0.50000   0.00000  Uiso   1.00
H897   H     0.18993   0.97335   0.50000   0.00000  Uiso   1.00
H898   H     0.18993   0.99337   0.50000   0.00000  Uiso   1.00
H899   H     0.79684   0.97335   0.50000   0.00000  Uiso   1.00
H900   H     0.79684   0.99337   0.50000   0.00000  Uiso   1.00
H901   H     0.22688   0.17006   0.50000   0.00000  Uiso   1.00
H902   H     0.26788   0.17006   0.50000   0.00000  Uiso   1.00
H903   H     0.30888   0.17006   0.50000   0.00000  Uiso   1.00
H904   H     0.34988   0.17006   0.50000   0.00000  Uiso   1.00
H905   H     0.39088   0.17006   0.50000   0.00000  Uiso   1.00
H906   H     0.59588   0.17006   0.50000   0.00000  Uiso   1.00
H907   H     0.63688   0.17006   0.50000   0.00000  Uiso   1.00
H908   H     0.67788   0.17006   0.50000   0.00000  Uiso   1.00
H909   H     0.71888   0.17006   0.50000   0.00000  Uiso   1.00
H910   H     0.75988   0.17006   0.50000   0.00000  Uiso   1.00
H911   H     0.41543   0.17671   0.50000   0.00000  Uiso   1.00
H912   H     0.41543   0.19001   0.50000   0.00000  Uiso   1.00
H913   H     0.57134   0.17671   0.50000   0.00000  Uiso   1.00
H914   H     0.57134   0.19001   0.50000   0.00000  Uiso   1.00
H915   H     0.41543   0.21004   0.50000   0.00000  Uiso   1.00
H916   H     0.41543   0.22335   0.50000   0.00000  Uiso   1.00
H917   H     0.57134   0.21004   0.50000   0.00000  Uiso   1.00
H918   H     0.57134   0.22335   0.50000   0.00000  Uiso   1.00
H919   H     0.41543   0.24337   0.50000   0.00000  Uiso   1.00
H920   H     0.41543   0.25668   0.50000   0.00000  Uiso   1.00
H921   H     0.57134   0.24337   0.50000   0.00000  Uiso   1.00
H922   H     0.57134   0.25668   0.50000   0.00000  Uiso   1.00
H923   H     0.41543   0.27671   0.50000   0.00000  Uiso   1.00
H924   H     0.41543   0.29001   0.50000   0.00000  Uiso   1.00
H925   H     0.57134   0.27671   0.50000   0.00000  Uiso   1.00
H926   H     0.57134   0.29001   0.50000   0.00000  Uiso   1.00
H927   H     0.41543   0.31004   0.50000   0.00000  Uiso   1.00
H928   H     0.41543   0.32335   0.50000   0.00000  Uiso   1.00
H929   H     0.57134   0.31004   0.50000   0.00000  Uiso   1.00
H930   H     0.57134   0.32335   0.50000   0.00000  Uiso   1.00
H931   H     0.41543   0.34337   0.50000   0.00000  Uiso   1.00
H932   H     0.41543   0.35668   0.50000   0.00000  Uiso   1.00
H933   H     0.57134   0.34337   0.50000   0.00000  Uiso   1.00
H934   H     0.57134   0.35668   0.50000   0.00000  Uiso   1.00
H935   H     0.41543   0.37671   0.50000   0.00000  Uiso   1.00
H936   H     0.41543   0.39001   0.50000   0.00000  Uiso   1.00
H937   H     0.57134   0.37671   0.50000   0.00000  Uiso   1.00
H938   H     0.57134   0.39001   0.50000   0.00000  Uiso   1.00
H939   H     0.41543   0.41004   0.50000   0.00000  Uiso   1.00
H940   H     0.41543   0.42335   0.50000   0.00000  Uiso   1.00
H941   H     0.57134   0.41004   0.50000   0.00000  Uiso   1.00
H942   H     0.57134   0.42335   0.50000   0.00000  Uiso   1.00
H943   H     0.41543   0.44337   0.50000   0.00000  Uiso   1.00
H944   H     0.41543   0.45668   0.50000   0.00000  Uiso   1.00
H945   H     0.57134   0.44337   0.50000   0.00000  Uiso   1.00
H946   H     0.57134   0.45668   0.50000   0.00000  Uiso   1.00
H947   H     0.41543   0.47671   0.50000   0.00000  Uiso   1.00
H948   H     0.41543   0.49001   0.50000   0.00000  Uiso   1.00
H949   H     0.57134   0.47671   0.50000   0.00000  Uiso   1.00
H950   H     0.57134   0.49001   0.50000   0.00000  Uiso   1.00
H951   H     0.41543   0.51004   0.50000   0.00000  Uiso   1.00
H952   H     0.41543   0.52335   0.50000   0.00000  Uiso   1.00
H953   H     0.57134   0.51004   0.50000   0.00000  Uiso   1.00
H954   H     0.57134   0.52335   0.50000   0.00000  Uiso   1.00
H955   H     0.41543   0.54337   0.50000   0.00000  Uiso   1.00
H956   H     0.41543   0.55668   0.50000   0.00000  Uiso   1.00
H957   H     0.57134   0.54337   0.50000   0.00000  Uiso   1.00
H958   H     0.57134   0.55668   0.50000   0.00000  Uiso   1.00
H959   H     0.41543   0.57671   0.50000   0.00000  Uiso   1.00
H960   H     0.41543   0.59001   0.50000   0.00000  Uiso   1.00
H961   H     0.57134   0.57671   0.50000   0.00000  Uiso   1.00
H962   H     0.57134   0.59001   0.50000   0.00000  Uiso   1.00
H963   H     0.41543   0.61004   0.50000   0.00000  Uiso   1.00
H964   H     0.41543   0.62335   0.50000   0.00000  Uiso   1.00
H965   H     0.57134   0.61004   0.50000   0.00000  Uiso   1.00
H966   H     0.57134   0.62335   0.50000   0.00000  Uiso   1.00
H967   H     0.41543   0.64337   0.50000   0.00000  Uiso   1.00
H968   H     0.41543   0.65668   0.50000   0.00000  Uiso   1.00
H969   H     0.57134   0.64337   0.50000   0.00000  Uiso   1.00
H970   H     0.57134   0.65668   0.50000   0.00000  Uiso   1.00
H971   H     0.41543   0.67671   0.50000   0.00000  Uiso   1.00
H972   H     0.41543   0.69001   0.50000   0.00000  Uiso   1.00
H973   H     0.57134   0.67671   0.50000   0.00000  Uiso   1.00
H974   H     0.57134   0.69001   0.50000   0.00000  Uiso   1.00
H975   H     0.41543   0.71004   0.50000   0.00000  Uiso   1.00
H976   H     0.41543   0.72335   0.50000   0.00000  Uiso   1.00
H977   H     0.57134   0.71004   0.50000   0.00000  Uiso   1.00
H978   H     0.57134   0.72335   0.50000   0.00000  Uiso   1.00
H979   H     0.41543   0.74337   0.50000   0.00000  Uiso   1.00
H980   H     0.41543   0.75668   0.50000   0.00000  Uiso   1.00
H981   H     0.57134   0.74337   0.50000   0.00000  Uiso   1.00
H982   H     0.57134   0.75668   0.50000   0.00000  Uiso   1.00
H983   H     0.41543   0.77671   0.50000   0.00000  Uiso   1.00
H984   H     0.41543   0.79001   0.50000   0.00000  Uiso   1.00
H985   H     0.57134   0.77671   0.50000   0.00000  Uiso   1.00
H986   H     0.57134   0.79001   0.50000   0.00000  Uiso   1.00
H987   H     0.41543   0.81004   0.50000   0.00000  Uiso   1.00
H988   H     0.41543   0.82335   0.50000   0.00000  Uiso   1.00
H989   H     0.57134   0.81004   0.50000   0.00000  Uiso   1.00
H990   H     0.57134   0.82335   0.50000   0.00000  Uiso   1.00
H991   H     0.22688   0.83000   0.50000   0.00000  Uiso   1.00
H992   H     0.26788   0.83000   0.50000   0.00000  Uiso   1.00
H993   H     0.30888   0.83000   0.50000   0.00000  Uiso   1.00
H994   H     0.34988   0.83000   0.50000   0.00000  Uiso   1.00
H995   H     0.39088   0.83000   0.50000   0.00000  Uiso   1.00
H996   H     0.59588   0.83000   0.50000   0.00000  Uiso   1.00
H997   H     0.63688   0.83000   0.50000   0.00000  Uiso   1.00
H998   H     0.67788   0.83000   0.50000   0.00000  Uiso   1.00
H999   H     0.71888   0.83000   0.50000   0.00000  Uiso   1.00
H1000  H     0.75988   0.83000   0.50000   0.00000  Uiso   1.00
loop_
_geom_bond_atom_site_label_1
_geom_bond_atom_site_label_2
_geom_bond_distance
_geom_bond_site_symmetry_2
_ccdc_geom_bond_type
N1     N6      1.420   .     A
N1     N2      1.420   .     A
N1     N842    1.420   1_545 S
N2     N3      1.420   .     A
N2     H59     1.140   .     S
N3     N4      1.420   .     A
N3     H60     1.140   .     S
N4     N7      1.420   .     A
N4     N63     1.420   .     S
N5     N10     1.420   .     A
N5     N6      1.420   .     A
N5     N846    1.420   1_545 S
N6     N7      1.420   .     A
N7     N8      1.420   .     A
N8     N11     1.420   .     A
N8     N67     1.420   .     S
N9     N14     1.420   .     A
N9     N10     1.420   .     A
N9     N850    1.420   1_545 S
N10    N11     1.420   .     A
N11    N12     1.420   .     A
N12    N15     1.420   .     A
N12    N71     1.420   .     S
N13    N18     1.420   .     A
N13    N14     1.420   .     A
N13    N854    1.420   1_545 S
N14    N15     1.420   .     A
N15    N16     1.420   .     A
N16    N19     1.420   .     A
N16    N75     1.420   .     S
N17    N22     1.420   .     A
N17    N18     1.420   .     A
N17    N858    1.420   1_545 S
N18    N19     1.420   .     A
N19    N20     1.420   .     A
N20    N23     1.420   .     A
N20    N79     1.420   .     S
N21    N26     1.420   .     A
N21    N22     1.420   .     A
N21    N862    1.420   1_545 S
N22    N23     1.420   .     A
N23    N24     1.420   .     A
N24    N27     1.420   .     A
N24    N83     1.420   .     S
N25    N30     1.420   .     A
N25    N26     1.420   .     A
N25    N866    1.420   1_545 S
N26    N27     1.420   .     A
N27    N28     1.420   .     A
N28    N31     1.420   .     A
N28    N87     1.420   .     S
N29    N34     1.420   .     A
N29    N30     1.420   .     A
N29    N870    1.420   1_545 S
N30    N31     1.420   .     A
N31    N32     1.420   .     A
N32    N35     1.420   .     A
N32    N91     1.420   .     S
N33    N38     1.420   .     A
N33    N34     1.420   .     A
N33    N874    1.420   1_545 S
N34    N35     1.420   .     A
N35    N36     1.420   .     A
N36    N39     1.420   .     A
N36    N95     1.420   .     S
N37    N42     1.420   .     A
N37    N38     1.420   .     A
N37    N878    1.420   1_545 S
N38    N39     1.420   .     A
N39    N40     1.420   .     A
N40    N43     1.420   .     A
N40    N99     1.420   .     S
N41    N46     1.420   .     A
N41    N42     1.420   .     A
N41    N882    1.420   1_545 S
N42    N43     1.420   .     A
N43    N44     1.420   .     A
N44    N47     1.420   .     A
N44    N103    1.420   .     S
N45    N50     1.420   .     A
N45    N46     1.420   .     A
N45    N886    1.420   1_545 S
N46    N47     1.420   .     A
N47    N48     1.420   .     A
N48    N51     1.420   .     A
N48    N107    1.420   .     S
N49    N54     1.420   .     A
N49    N50     1.420   .     A
N49    N890    1.420   1_545 S
N50    N51     1.420   .     A
N51    N52     1.420   .     A
N52    N55     1.420   .     A
N52    N111    1.420   .     S
N53    N57     1.420   .     A
N53    N54     1.420   .     A
N53    N894    1.420   1_545 S
N54    N55     1.420   .     A
N55    N56     1.420   .     A
N56    N58     1.420   .     A
N56    N115    1.420   .     S
N57    N58     1.420   .     A
N57    H61     1.140   .     S
N58    H62     1.140   .     S
N63    N68     1.420   .     A
N63    N64     1.420   .     A
N64    N65     1.420   .     A
N64    H121    1.140   .     S
N65    N66     1.420   .     A
N65    H122    1.140   .     S
N66    N69     1.420   .     A
N66    N125    1.420   .     S
N67    N72     1.420   .     A
N67    N68     1.420   .     A
N68    N69     1.420   .     A
N69    N70     1.420   .     A
N70    N73     1.420   .     A
N70    N129    1.420   .     S
N71    N76     1.420   .     A
N71    N72     1.420   .     A
N72    N73     1.420   .     A
N73    N74     1.420   .     A
N74    N77     1.420   .     A
N74    N133    1.420   .     S
N75    N80     1.420   .     A
N75    N76     1.420   .     A
N76    N77     1.420   .     A
N77    N78     1.420   .     A
N78    N81     1.420   .     A
N78    N137    1.420   .     S
N79    N84     1.420   .     A
N79    N80     1.420   .     A
N80    N81     1.420   .     A
N81    N82     1.420   .     A
N82    N85     1.420   .     A
N82    N141    1.420   .     S
N83    N88     1.420   .     A
N83    N84     1.420   .     A
N84    N85     1.420   .     A
N85    N86     1.420   .     A
N86    N89     1.420   .     A
N86    N145    1.420   .     S
N87    N92     1.420   .     A
N87    N88     1.420   .     A
N88    N89     1.420   .     A
N89    N90     1.420   .     A
N90    N93     1.420   .     A
N90    N149    1.420   .     S
N91    N96     1.420   .     A
N91    N92     1.420   .     A
N92    N93     1.420   .     A
N93    N94     1.420   .     A
N94    N97     1.420   .     A
N94    N153    1.420   .     S
N95    N100    1.420   .     A
N95    N96     1.420   .     A
N96    N97     1.420   .     A
N97    N98     1.420   .     A
N98    N101    1.420   .     A
N98    N157    1.420   .     S
N99    N104    1.420   .     A
N99    N100    1.420   .     A
N100   N101    1.420   .     A
N101   N102    1.420   .     A
N102   N105    1.420   .     A
N102   N161    1.420   .     S
N103   N108    1.420   .     A
N103   N104    1.420   .     A
N104   N105    1.420   .     A
N105   N106    1.420   .     A
N106   N109    1.420   .     A
N106   N165    1.420   .     S
N107   N112    1.420   .     A
N107   N108    1.420   .     A
N108   N109    1.420   .     A
N109   N110    1.420   .     A
N110   N113    1.420   .     A
N110   N169    1.420   .     S
N111   N116    1.420   .     A
N111   N112    1.420   .     A
N112   N113    1.420   .     A
N113   N114    1.420   .     A
N114   N117    1.420   .     A
N114   N173    1.420   .     S
N115   N119    1.420   .     A
N115   N116    1.420   .     A
N116   N117    1.420   .     A
N117   N118    1.420   .     A
N118   N120    1.420   .     A
N118   N177    1.420   .     S
N119   N120    1.420   .     A
N119   H123    1.140   .     S
N120   H124    1.140   .     S
N125   N130    1.420   .     A
N125   N126    1.420   .     A
N126   N127    1.420   .     A
N126   H183    1.140   .     S
N127   N128    1.420   .     A
N127   H184    1.140   .     S
N128   N131    1.420   .     A
N128   N187    1.420   .     S
N129   N134    1.420   .     A
N129   N130    1.420   .     A
N130   N131    1.420   .     A
N131   N132    1.420   .     A
N132   N135    1.420   .     A
N132   N191    1.420   .     S
N133   N138    1.420   .     A
N133   N134    1.420   .     A
N134   N135    1.420   .     A
N135   N136    1.420   .     A
N136   N139    1.420   .     A
N136   N195    1.420   .     S
N137   N142    1.420   .     A
N137   N138    1.420   .     A
N138   N139    1.420   .     A
N139   N140    1.420   .     A
N140   N143    1.420   .     A
N140   N199    1.420   .     S
N141   N146    1.420   .     A
N141   N142    1.420   .     A
N142   N143    1.420   .     A
N143   N144    1.420   .     A
N144   N147    1.420   .     A
N144   N203    1.420   .     S
N145   N150    1.420   .     A
N145   N146    1.420   .     A
N146   N147    1.420   .     A
N147   N148    1.420   .     A
N148   N151    1.420   .     A
N148   N207    1.420   .     S
N149   N154    1.420   .     A
N149   N150    1.420   .     A
N150   N151    1.420   .     A
N151   N152    1.420   .     A
N152   N155    1.420   .     A
N152   N211    1.420   .     S
N153   N158    1.420   .     A
N153   N154    1.420   .     A
N154   N155    1.420   .     A
N155   N156    1.420   .     A
N156   N159    1.420   .     A
N156   N215    1.420   .     S
N157   N162    1.420   .     A
N157   N158    1.420   .     A
N158   N159    1.420   .     A
N159   N160    1.420   .     A
N160   N163    1.420   .     A
N160   N219    1.420   .     S
N161   N166    1.420   .     A
N161   N162    1.420   .     A
N162   N163    1.420   .     A
N163   N164    1.420   .     A
N164   N167    1.420   .     A
N164   N223    1.420   .     S
N165   N170    1.420   .     A
N165   N166    1.420   .     A
N166   N167    1.420   .     A
N167   N168    1.420   .     A
N168   N171    1.420   .     A
N168   N227    1.420   .     S
N169   N174    1.420   .     A
N169   N170    1.420   .     A
N170   N171    1.420   .     A
N171   N172    1.420   .     A
N172   N175    1.420   .     A
N172   N231    1.420   .     S
N173   N178    1.420   .     A
N173   N174    1.420   .     A
N174   N175    1.420   .     A
N175   N176    1.420   .     A
N176   N179    1.420   .     A
N176   N235    1.420   .     S
N177   N181    1.420   .     A
N177   N178    1.420   .     A
N178   N179    1.420   .     A
N179   N180    1.420   .     A
N180   N182    1.420   .     A
N180   N239    1.420   .     S
N181   N182    1.420   .     A
N181   H185    1.140   .     S
N182   H186    1.140   .     S
N187   N192    1.420   .     A
N187   N188    1.420   .     A
N188   N189    1.420   .     A
N188   H245    1.140   .     S
N189   N190    1.420   .     A
N189   H246    1.140   .     S
N190   N193    1.420   .     A
N190   N249    1.420   .     S
N191   N196    1.420   .     A
N191   N192    1.420   .     A
N192   N193    1.420   .     A
N193   N194    1.420   .     A
N194   N197    1.420   .     A
N194   N253    1.420   .     S
N195   N200    1.420   .     A
N195   N196    1.420   .     A
N196   N197    1.420   .     A
N197   N198    1.420   .     A
N198   N201    1.420   .     A
N198   N257    1.420   .     S
N199   N204    1.420   .     A
N199   N200    1.420   .     A
N200   N201    1.420   .     A
N201   N202    1.420   .     A
N202   N205    1.420   .     A
N202   N261    1.420   .     S
N203   N208    1.420   .     A
N203   N204    1.420   .     A
N204   N205    1.420   .     A
N205   N206    1.420   .     A
N206   N209    1.420   .     A
N206   N265    1.420   .     S
N207   N212    1.420   .     A
N207   N208    1.420   .     A
N208   N209    1.420   .     A
N209   N210    1.420   .     A
N210   N213    1.420   .     A
N210   N269    1.420   .     S
N211   N216    1.420   .     A
N211   N212    1.420   .     A
N212   N213    1.420   .     A
N213   N214    1.420   .     A
N214   N217    1.420   .     A
N214   N273    1.420   .     S
N215   N220    1.420   .     A
N215   N216    1.420   .     A
N216   N217    1.420   .     A
N217   N218    1.420   .     A
N218   N221    1.420   .     A
N218   N277    1.420   .     S
N219   N224    1.420   .     A
N219   N220    1.420   .     A
N220   N221    1.420   .     A
N221   N222    1.420   .     A
N222   N225    1.420   .     A
N222   N281    1.420   .     S
N223   N228    1.420   .     A
N223   N224    1.420   .     A
N224   N225    1.420   .     A
N225   N226    1.420   .     A
N226   N229    1.420   .     A
N226   N285    1.420   .     S
N227   N232    1.420   .     A
N227   N228    1.420   .     A
N228   N229    1.420   .     A
N229   N230    1.420   .     A
N230   N233    1.420   .     A
N230   N289    1.420   .     S
N231   N236    1.420   .     A
N231   N232    1.420   .     A
N232   N233    1.420   .     A
N233   N234    1.420   .     A
N234   N237    1.420   .     A
N234   N293    1.420   .     S
N235   N240    1.420   .     A
N235   N236    1.420   .     A
N236   N237    1.420   .     A
N237   N238    1.420   .     A
N238   N241    1.420   .     A
N238   N297    1.420   .     S
N239   N243    1.420   .     A
N239   N240    1.420   .     A
N240   N241    1.420   .     A
N241   N242    1.420   .     A
N242   N244    1.420   .     A
N242   N301    1.420   .     S
N243   N244    1.420   .     A
N243   H247    1.140   .     S
N244   H248    1.140   .     S
N249   N254    1.420   .     A
N249   N250    1.420   .     A
N250   N251    1.420   .     A
N250   H307    1.140   .     S
N251   N252    1.420   .     A
N251   H308    1.140   .     S
N252   N255    1.420   .     A
N252   H901    1.140   .     S
N253   N258    1.420   .     A
N253   N254    1.420   .     A
N254   N255    1.420   .     A
N255   N256    1.420   .     A
N256   N259    1.420   .     A
N256   H902    1.140   .     S
N257   N262    1.420   .     A
N257   N258    1.420   .     A
N258   N259    1.420   .     A
N259   N260    1.420   .     A
N260   N263    1.420   .     A
N260   H903    1.140   .     S
N261   N266    1.420   .     A
N261   N262    1.420   .     A
N262   N263    1.420   .     A
N263   N264    1.420   .     A
N264   N267    1.420   .     A
N264   H904    1.140   .     S
N265   N270    1.420   .     A
N265   N266    1.420   .     A
N266   N267    1.420   .     A
N267   N268    1.420   .     A
N268   N271    1.420   .     A
N268   H905    1.140   .     S
N269   N274    1.420   .     A
N269   N270    1.420   .     A
N270   N271    1.420   .     A
N271   N272    1.420   .     A
N272   N275    1.420   .     A
N272   C311    1.420   .     S
N273   N278    1.420   .     A
N273   N274    1.420   .     A
N274   N275    1.420   .     A
N275   N276    1.420   .     A
N276   N279    1.420   .     A
N276   C313    1.420   .     S
N277   N282    1.420   .     A
N277   N278    1.420   .     A
N278   N279    1.420   .     A
N279   N280    1.420   .     A
N280   N283    1.420   .     A
N280   C317    1.420   .     S
N281   N286    1.420   .     A
N281   N282    1.420   .     A
N282   N283    1.420   .     A
N283   N284    1.420   .     A
N284   N287    1.420   .     A
N284   C321    1.420   .     S
N285   N290    1.420   .     A
N285   N286    1.420   .     A
N286   N287    1.420   .     A
N287   N288    1.420   .     A
N288   N291    1.420   .     A
N288   H906    1.140   .     S
N289   N294    1.420   .     A
N289   N290    1.420   .     A
N290   N291    1.420   .     A
N291   N292    1.420   .     A
N292   N295    1.420   .     A
N292   H907    1.140   .     S
N293   N298    1.420   .     A
N293   N294    1.420   .     A
N294   N295    1.420   .     A
N295   N296    1.420   .     A
N296   N299    1.420   .     A
N296   H908    1.140   .     S
N297   N302    1.420   .     A
N297   N298    1.420   .     A
N298   N299    1.420   .     A
N299   N300    1.420   .     A
N300   N303    1.420   .     A
N300   H909    1.140   .     S
N301   N305    1.420   .     A
N301   N302    1.420   .     A
N302   N303    1.420   .     A
N303   N304    1.420   .     A
N304   N306    1.420   .     A
N304   H910    1.140   .     S
N305   N306    1.420   .     A
N305   H309    1.140   .     S
N306   H310    1.140   .     S
C311   C314    1.420   .     A
C311   H911    1.140   .     S
C312   C315    1.420   .     A
C312   C325    1.420   .     S
C312   H912    1.140   .     S
C313   C318    1.420   .     A
C313   C314    1.420   .     A
C314   C315    1.420   .     A
C315   C316    1.420   .     A
C316   C319    1.420   .     A
C316   C327    1.420   .     S
C317   C322    1.420   .     A
C317   C318    1.420   .     A
C318   C319    1.420   .     A
C319   C320    1.420   .     A
C320   C323    1.420   .     A
C320   C331    1.420   .     S
C321   C322    1.420   .     A
C321   H913    1.140   .     S
C322   C323    1.420   .     A
C323   C324    1.420   .     A
C324   C335    1.420   .     S
C324   H914    1.140   .     S
C325   C328    1.420   .     A
C325   H915    1.140   .     S
C326   C329    1.420   .     A
C326   C339    1.420   .     S
C326   H916    1.140   .     S
C327   C332    1.420   .     A
C327   C328    1.420   .     A
C328   C329    1.420   .     A
C329   C330    1.420   .     A
C330   C333    1.420   .     A
C330   C341    1.420   .     S
C331   C336    1.420   .     A
C331   C332    1.420   .     A
C332   C333    1.420   .     A
C333   C334    1.420   .     A
C334   C337    1.420   .     A
C334   C345    1.420   .     S
C335   C336    1.420   .     A
C335   H917    1.140   .     S
C336   C337    1.420   .     A
C337   C338    1.420   .     A
C338   C349    1.420   .     S
C338   H918    1.140   .     S
C339   C342    1.420   .     A
C339   H919    1.140   .     S
C340   C343    1.420   .     A
C340   C353    1.420   .     S
C340   H920    1.140   .     S
C341   C346    1.420   .     A
C341   C342    1.420   .     A
C342   C343    1.420   .     A
C343   C344    1.420   .     A
C344   C347    1.420   .     A
C344   C355    1.420   .     S
C345   C350    1.420   .     A
C345   C346    1.420   .     A
C346   C347    1.420   .     A
C347   C348    1.420   .     A
C348   C351    1.420   .     A
C348   C359    1.420   .     S
C349   C350    1.420   .     A
C349   H921    1.140   .     S
C350   C351    1.420   .     A
C351   C352    1.420   .     A
C352   C363    1.420   .     S
C352   H922    1.140   .     S
C353   C356    1.420   .     A
C353   H923    1.140   .     S
C354   C357    1.420   .     A
C354   C367    1.420   .     S
C354   H924    1.140   .     S
C355   C360    1.420   .     A
C355   C356    1.420   .     A
C356   C357    1.420   .     A
C357   C358    1.420   .     A
C358   C361    1.420   .     A
C358   C369    1.420   .     S
C359   C364    1.420   .     A
C359   C360    1.420   .     A
C360   C361    1.420   .     A
C361   C362    1.420   .     A
C362   C365    1.420   .     A
C362   C373    1.420   .     S
C363   C364    1.420   .     A
C363   H925    1.140   .     S
C364   C365    1.420   .     A
C365   C366    1.420   .     A
C366   C377    1.420   .     S
C366   H926    1.140   .     S
C367   C370    1.420   .     A
C367   H927    1.140   .     S
C368   C371    1.420   .     A
C368   C381    1.420   .     S
C368   H928    1.140   .     S
C369   C374    1.420   .     A
C369   C370    1.420   .     A
C370   C371    1.420   .     A
C371   C372    1.420   .     A
C372   C375    1.420   .     A
C372   C383    1.420   .     S
C373   C378    1.420   .     A
C373   C374    1.420   .     A
C374   C375    1.420   .     A
C375   C376    1.420   .     A
C376   C379    1.420   .     A
C376   C387    1.420   .     S
C377   C378    1.420   .     A
C377   H929    1.140   .     S
C378   C379    1.420   .     A
C379   C380    1.420   .     A
C380   C391    1.420   .     S
C380   H930    1.140   .     S
C381   C384    1.420   .     A
C381   H931    1.140   .     S
C382   C385    1.420   .     A
C382   C395    1.420   .     S
C382   H932    1.140   .     S
C383   C388    1.420   .     A
C383   C384    1.420   .     A
C384   C385    1.420   .     A
C385   C386    1.420   .     A
C386   C389    1.420   .     A
C386   C397    1.420   .     S
C387   C392    1.420   .     A
C387   C388    1.420   .     A
C388   C389    1.420   .     A
C389   C390    1.420   .     A
C390   C393    1.420   .     A
C390   C401    1.420   .     S
C391   C392    1.420   .     A
C391   H933    1.140   .     S
C392   C393    1.420   .     A
C393   C394    1.420   .     A
C394   C405    1.420   .     S
C394   H934    1.140   .     S
C395   C398    1.420   .     A
C395   H935    1.140   .     S
C396   C399    1.420   .     A
C396   C409    1.420   .     S
C396   H936    1.140   .     S
C397   C402    1.420   .     A
C397   C398    1.420   .     A
C398   C399    1.420   .     A
C399   C400    1.420   .     A
C400   C403    1.420   .     A
C400   C411    1.420   .     S
C401   C406    1.420   .     A
C401   C402    1.420   .     A
C402   C403    1.420   .     A
C403   C404    1.420   .     A
C404   C407    1.420   .     A
C404   C415    1.420   .     S
C405   C406    1.420   .     A
C405   H937    1.140   .     S
C406   C407    1.420   .     A
C407   C408    1.420   .     A
C408   C419    1.420   .     S
C408   H938    1.140   .     S
C409   C412    1.420   .     A
C409   H939    1.140   .     S
C410   C413    1.420   .     A
C410   C423    1.420   .     S
C410   H940    1.140   .     S
C411   C416    1.420   .     A
C411   C412    1.420   .     A
C412   C413    1.420   .     A
C413   C414    1.420   .     A
C414   C417    1.420   .     A
C414   C425    1.420   .     S
C415   C420    1.420   .     A
C415   C416    1.420   .     A
C416   C417    1.420   .     A
C417   C418    1.420   .     A
C418   C421    1.420   .     A
C418   C429    1.420   .     S
C419   C420    1.420   .     A
C419   H941    1.140   .     S
C420   C421    1.420   .     A
C421   C422    1.420   .     A
C422   C433    1.420   .     S
C422   H942    1.140   .     S
C423   C426    1.420   .     A
C423   H943    1.140   .     S
C424   C427    1.420   .     A
C424   C437    1.420   .     S
C424   H944    1.140   .     S
C425   C430    1.420   .     A
C425   C426    1.420   .     A
C426   C427    1.420   .     A
C427   C428    1.420   .     A
C428   C431    1.420   .     A
C428   C439    1.420   .     S
C429   C434    1.420   .     A
C429   C430    1.420   .     A
C430   C431    1.420   .     A
C431   C432    1.420   .     A
C432   C435    1.420   .     A
C432   C443    1.420   .     S
C433   C434    1.420   .     A
C433   H945    1.140   .     S
C434   C435    1.420   .     A
C435   C436    1.420   .     A
C436   C447    1.420   .     S
C436   H946    1.140   .     S
C437   C440    1.420   .     A
C437   H947    1.140   .     S
C438   C441    1.420   .     A
C438   C451    1.420   .     S
C438   H948    1.140   .     S
C439   C444    1.420   .     A
C439   C440    1.420   .     A
C440   C441    1.420   .     A
C441   C442    1.420   .     A
C442   C445    1.420   .     A
C442   C453    1.420   .     S
C443   C448    1.420   .     A
C443   C444    1.420   .     A
C444   C445    1.420   .     A
C445   C446    1.420   .     A
C446   C449    1.420   .     A
C446   C457    1.420   .     S
C447   C448    1.420   .     A
C447   H949    1.140   .     S
C448   C449    1.420   .     A
C449   C450    1.420   .     A
C450   C461    1.420   .     S
C450   H950    1.140   .     S
C451   C454    1.420   .     A
C451   H951    1.140   .     S
C452   C455    1.420   .     A
C452   C465    1.420   .     S
C452   H952    1.140   .     S
C453   C458    1.420   .     A
C453   C454    1.420   .     A
C454   C455    1.420   .     A
C455   C456    1.420   .     A
C456   C459    1.420   .     A
C456   C467    1.420   .     S
C457   C462    1.420   .     A
C457   C458    1.420   .     A
C458   C459    1.420   .     A
C459   C460    1.420   .     A
C460   C463    1.420   .     A
C460   C471    1.420   .     S
C461   C462    1.420   .     A
C461   H953    1.140   .     S
C462   C463    1.420   .     A
C463   C464    1.420   .     A
C464   C475    1.420   .     S
C464   H954    1.140   .     S
C465   C468    1.420   .     A
C465   H955    1.140   .     S
C466   C469    1.420   .     A
C466   C479    1.420   .     S
C466   H956    1.140   .     S
C467   C472    1.420   .     A
C467   C468    1.420   .     A
C468   C469    1.420   .     A
C469   C470    1.420   .     A
C470   C473    1.420   .     A
C470   C481    1.420   .     S
C471   C476    1.420   .     A
C471   C472    1.420   .     A
C472   C473    1.420   .     A
C473   C474    1.420   .     A
C474   C477    1.420   .     A
C474   C485    1.420   .     S
C475   C476    1.420   .     A
C475   H957    1.140   .     S
C476   C477    1.420   .     A
C477   C478    1.420   .     A
C478   C489    1.420   .     S
C478   H958    1.140   .     S
C479   C482    1.420   .     A
C479   H959    1.140   .     S
C480   C483    1.420   .     A
C480   C493    1.420   .     S
C480   H960    1.140   .     S
C481   C486    1.420   .     A
C481   C482    1.420   .     A
C482   C483    1.420   .     A
C483   C484    1.420   .     A
C484   C487    1.420   .     A
C484   C495    1.420   .     S
C485   C490    1.420   .     A
C485   C486    1.420   .     A
C486   C487    1.420   .     A
C487   C488    1.420   .     A
C488   C491    1.420   .     A
C488   C499    1.420   .     S
C489   C490    1.420   .     A
C489   H961    1.140   .     S
C490   C491    1.420   .     A
C491   C492    1.420   .     A
C492   C503    1.420   .     S
C492   H962    1.140   .     S
C493   C496    1.420   .     A
C493   H963    1.140   .     S
C494   C497    1.420   .     A
C494   C507    1.420   .     S
C494   H964    1.140   .     S
C495   C500    1.420   .     A
C495   C496    1.420   .     A
C496   C497    1.420   .     A
C497   C498    1.420   .     A
C498   C501    1.420   .     A
C498   C509    1.420   .     S
C499   C504    1.420   .     A
C499   C500    1.420   .     A
C500   C501    1.420   .     A
C501   C502    1.420   .     A
C502   C505    1.420   .     A
C502   C513    1.420   .     S
C503   C504    1.420   .     A
C503   H965    1.140   .     S
C504   C505    1.420   .     A
C505   C506    1.420   .     A
C506   C517    1.420   .     S
C506   H966    1.140   .     S
C507   C510    1.420   .     A
C507   H967    1.140   .     S
C508   C511    1.420   .     A
C508   C521    1.420   .     S
C508   H968    1.140   .     S
C509   C514    1.420   .     A
C509   C510    1.420   .     A
C510   C511    1.420   .     A
C511   C512    1.420   .     A
C512   C515    1.420   .     A
C512   C523    1.420   .     S
C513   C518    1.420   .     A
C513   C514    1.420   .     A
C514   C515    1.420   .     A
C515   C516    1.420   .     A
C516   C519    1.420   .     A
C516   C527    1.420   .     S
C517   C518    1.420   .     A
C517   H969    1.140   .     S
C518   C519    1.420   .     A
C519   C520    1.420   .     A
C520   C531    1.420   .     S
C520   H970    1.140   .     S
C521   C524    1.420   .     A
C521   H971    1.140   .     S
C522   C525    1.420   .     A
C522   C535    1.420   .     S
C522   H972    1.140   .     S
C523   C528    1.420   .     A
C523   C524    1.420   .     A
C524   C525    1.420   .     A
C525   C526    1.420   .     A
C526   C529    1.420   .     A
C526   C537    1.420   .     S
C527   C532    1.420   .     A
C527   C528    1.420   .     A
C528   C529    1.420   .     A
C529   C530    1.420   .     A
C530   C533    1.420   .     A
C530   C541    1.420   .     S
C531   C532    1.420   .     A
C531   H973    1.140   .     S
C532   C533    1.420   .     A
C533   C534    1.420   .     A
C534   C545    1.420   .     S
C534   H974    1.140   .     S
C535   C538    1.420   .     A
C535   H975    1.140   .     S
C536   C539    1.420   .     A
C536   C549    1.420   .     S
C536   H976    1.140   .     S
C537   C542    1.420   .     A
C537   C538    1.420   .     A
C538   C539    1.420   .     A
C539   C540    1.420   .     A
C540   C543    1.420   .     A
C540   C551    1.420   .     S
C541   C546    1.420   .     A
C541   C542    1.420   .     A
C542   C543    1.420   .     A
C543   C544    1.420   .     A
C544   C547    1.420   .     A
C544   C555    1.420   .     S
C545   C546    1.420   .     A
C545   H977    1.140   .     S
C546   C547    1.420   .     A
C547   C548    1.420   .     A
C548   C559    1.420   .     S
C548   H978    1.140   .     S
C549   C552    1.420   .     A
C549   H979    1.140   .     S
C550   C553    1.420   .     A
C550   C563    1.420   .     S
C550   H980    1.140   .     S
C551   C556    1.420   .     A
C551   C552    1.420   .     A
C552   C553    1.420   .     A
C553   C554    1.420   .     A
C554   C557    1.420   .     A
C554   C565    1.420   .     S
C555   C560    1.420   .     A
C555   C556    1.420   .     A
C556   C557    1.420   .     A
C557   C558    1.420   .     A
C558   C561    1.420   .     A
C558   C569    1.420   .     S
C559   C560    1.420   .     A
C559   H981    1.140   .     S
C560   C561    1.420   .     A
C561   C562    1.420   .     A
C562   C573    1.420   .     S
C562   H982    1.140   .     S
C563   C566    1.420   .     A
C563   H983    1.140   .     S
C564   C567    1.420   .     A
C564   C577    1.420   .     S
C564   H984    1.140   .     S
C565   C570    1.420   .     A
C565   C566    1.420   .     A
C566   C567    1.420   .     A
C567   C568    1.420   .     A
C568   C571    1.420   .     A
C568   C579    1.420   .     S
C569   C574    1.420   .     A
C569   C570    1.420   .     A
C570   C571    1.420   .     A
C571   C572    1.420   .     A
C572   C575    1.420   .     A
C572   C583    1.420   .     S
C573   C574    1.420   .     A
C573   H985    1.140   .     S
C574   C575    1.420   .     A
C575   C576    1.420   .     A
C576   C587    1.420   .     S
C576   H986    1.140   .     S
C577   C580    1.420   .     A
C577   H987    1.140   .     S
C578   C581    1.420   .     A
C578   N611    1.420   .     S
C578   H988    1.140   .     S
C579   C584    1.420   .     A
C579   C580    1.420   .     A
C580   C581    1.420   .     A
C581   C582    1.420   .     A
C582   C585    1.420   .     A
C582   N615    1.420   .     S
C583   C588    1.420   .     A
C583   C584    1.420   .     A
C584   C585    1.420   .     A
C585   C586    1.420   .     A
C586   C589    1.420   .     A
C586   N619    1.420   .     S
C587   C588    1.420   .     A
C587   H989    1.140   .     S
C588   C589    1.420   .     A
C589   C590    1.420   .     A
C590   N623    1.420   .     S
C590   H990    1.140   .     S
N591   N596    1.420   .     A
N591   N592    1.420   .     A
N591   H991    1.140   .     S
N592   N593    1.420   .     A
N592   H649    1.140   .     S
N593   N594    1.420   .     A
N593   H650    1.140   .     S
N594   N597    1.420   .     A
N594   N653    1.420   .     S
N595   N600    1.420   .     A
N595   N596    1.420   .     A
N595   H992    1.140   .     S
N596   N597    1.420   .     A
N597   N598    1.420   .     A
N598   N601    1.420   .     A
N598   N657    1.420   .     S
N599   N604    1.420   .     A
N599   N600    1.420   .     A
N599   H993    1.140   .     S
N600   N601    1.420   .     A
N601   N602    1.420   .     A
N602   N605    1.420   .     A
N602   N661    1.420   .     S
N603   N608    1.420   .     A
N603   N604    1.420   .     A
N603   H994    1.140   .     S
N604   N605    1.420   .     A
N605   N606    1.420   .     A
N606   N609    1.420   .     A
N606   N665    1.420   .     S
N607   N612    1.420   .     A
N607   N608    1.420   .     A
N607   H995    1.140   .     S
N608   N609    1.420   .     A
N609   N610    1.420   .     A
N610   N613    1.420   .     A
N610   N669    1.420   .     S
N611   N616    1.420   .     A
N611   N612    1.420   .     A
N612   N613    1.420   .     A
N613   N614    1.420   .     A
N614   N617    1.420   .     A
N614   N673    1.420   .     S
N615   N620    1.420   .     A
N615   N616    1.420   .     A
N616   N617    1.420   .     A
N617   N618    1.420   .     A
N618   N621    1.420   .     A
N618   N677    1.420   .     S
N619   N624    1.420   .     A
N619   N620    1.420   .     A
N620   N621    1.420   .     A
N621   N622    1.420   .     A
N622   N625    1.420   .     A
N622   N681    1.420   .     S
N623   N628    1.420   .     A
N623   N624    1.420   .     A
N624   N625    1.420   .     A
N625   N626    1.420   .     A
N626   N629    1.420   .     A
N626   N685    1.420   .     S
N627   N632    1.420   .     A
N627   N628    1.420   .     A
N627   H996    1.140   .     S
N628   N629    1.420   .     A
N629   N630    1.420   .     A
N630   N633    1.420   .     A
N630   N689    1.420   .     S
N631   N636    1.420   .     A
N631   N632    1.420   .     A
N631   H997    1.140   .     S
N632   N633    1.420   .     A
N633   N634    1.420   .     A
N634   N637    1.420   .     A
N634   N693    1.420   .     S
N635   N640    1.420   .     A
N635   N636    1.420   .     A
N635   H998    1.140   .     S
N636   N637    1.420   .     A
N637   N638    1.420   .     A
N638   N641    1.420   .     A
N638   N697    1.420   .     S
N639   N644    1.420   .     A
N639   N640    1.420   .     A
N639   H999    1.140   .     S
N640   N641    1.420   .     A
N641   N642    1.420   .     A
N642   N645    1.420   .     A
N642   N701    1.420   .     S
N643   N647    1.420   .     A
N643   N644    1.420   .     A
N643   H1000   1.140   .     S
N644   N645    1.420   .     A
N645   N646    1.420   .     A
N646   N648    1.420   .     A
N646   N705    1.420   .     S
N647   N648    1.420   .     A
N647   H651    1.140   .     S
N648   H652    1.140   .     S
N653   N658    1.420   .     A
N653   N654    1.420   .     A
N654   N655    1.420   .     A
N654   H711    1.140   .     S
N655   N656    1.420   .     A
N655   H712    1.140   .     S
N656   N659    1.420   .     A
N656   N715    1.420   .     S
N657   N662    1.420   .     A
N657   N658    1.420   .     A
N658   N659    1.420   .     A
N659   N660    1.420   .     A
N660   N663    1.420   .     A
N660   N719    1.420   .     S
N661   N666    1.420   .     A
N661   N662    1.420   .     A
N662   N663    1.420   .     A
N663   N664    1.420   .     A
N664   N667    1.420   .     A
N664   N723    1.420   .     S
N665   N670    1.420   .     A
N665   N666    1.420   .     A
N666   N667    1.420   .     A
N667   N668    1.420   .     A
N668   N671    1.420   .     A
N668   N727    1.420   .     S
N669   N674    1.420   .     A
N669   N670    1.420   .     A
N670   N671    1.420   .     A
N671   N672    1.420   .     A
N672   N675    1.420   .     A
N672   N731    1.420   .     S
N673   N678    1.420   .     A
N673   N674    1.420   .     A
N674   N675    1.420   .     A
N675   N676    1.420   .     A
N676   N679    1.420   .     A
N676   N735    1.420   .     S
N677   N682    1.420   .     A
N677   N678    1.420   .     A
N678   N679    1.420   .     A
N679   N680    1.420   .     A
N680   N683    1.420   .     A
N680   N739    1.420   .     S
N681   N686    1.420   .     A
N681   N682    1.420   .     A
N682   N683    1.420   .     A
N683   N684    1.420   .     A
N684   N687    1.420   .     A
N684   N743    1.420   .     S
N685   N690    1.420   .     A
N685   N686    1.420   .     A
N686   N687    1.420   .     A
N687   N688    1.420   .     A
N688   N691    1.420   .     A
N688   N747    1.420   .     S
N689   N694    1.420   .     A
N689   N690    1.420   .     A
N690   N691    1.420   .     A
N691   N692    1.420   .     A
N692   N695    1.420   .     A
N692   N751    1.420   .     S
N693   N698    1.420   .     A
N693   N694    1.420   .     A
N694   N695    1.420   .     A
N695   N696    1.420   .     A
N696   N699    1.420   .     A
N696   N755    1.420   .     S
N697   N702    1.420   .     A
N697   N698    1.420   .     A
N698   N699    1.420   .     A
N699   N700    1.420   .     A
N700   N703    1.420   .     A
N700   N759    1.420   .     S
N701   N706    1.420   .     A
N701   N702    1.420   .     A
N702   N703    1.420   .     A
N703   N704    1.420   .     A
N704   N707    1.420   .     A
N704   N763    1.420   .     S
N705   N709    1.420   .     A
N705   N706    1.420   .     A
N706   N707    1.420   .     A
N707   N708    1.420   .     A
N708   N710    1.420   .     A
N708   N767    1.420   .     S
N709   N710    1.420   .     A
N709   H713    1.140   .     S
N710   H714    1.140   .     S
N715   N720    1.420   .     A
N715   N716    1.420   .     A
N716   N717    1.420   .     A
N716   H773    1.140   .     S
N717   N718    1.420   .     A
N717   H774    1.140   .     S
N718   N721    1.420   .     A
N718   N777    1.420   .     S
N719   N724    1.420   .     A
N719   N720    1.420   .     A
N720   N721    1.420   .     A
N721   N722    1.420   .     A
N722   N725    1.420   .     A
N722   N781    1.420   .     S
N723   N728    1.420   .     A
N723   N724    1.420   .     A
N724   N725    1.420   .     A
N725   N726    1.420   .     A
N726   N729    1.420   .     A
N726   N785    1.420   .     S
N727   N732    1.420   .     A
N727   N728    1.420   .     A
N728   N729    1.420   .     A
N729   N730    1.420   .     A
N730   N733    1.420   .     A
N730   N789    1.420   .     S
N731   N736    1.420   .     A
N731   N732    1.420   .     A
N732   N733    1.420   .     A
N733   N734    1.420   .     A
N734   N737    1.420   .     A
N734   N793    1.420   .     S
N735   N740    1.420   .     A
N735   N736    1.420   .     A
N736   N737    1.420   .     A
N737   N738    1.420   .     A
N738   N741    1.420   .     A
N738   N797    1.420   .     S
N739   N744    1.420   .     A
N739   N740    1.420   .     A
N740   N741    1.420   .     A
N741   N742    1.420   .     A
N742   N745    1.420   .     A
N742   N801    1.420   .     S
N743   N748    1.420   .     A
N743   N744    1.420   .     A
N744   N745    1.420   .     A
N745   N746    1.420   .     A
N746   N749    1.420   .     A
N746   N805    1.420   .     S
N747   N752    1.420   .     A
N747   N748    1.420   .     A
N748   N749    1.420   .     A
N749   N750    1.420   .     A
N750   N753    1.420   .     A
N750   N809    1.420   .     S
N751   N756    1.420   .     A
N751   N752    1.420   .     A
N752   N753    1.420   .     A
N753   N754    1.420   .     A
N754   N757    1.420   .     A
N754   N813    1.420   .     S
N755   N760    1.420   .     A
N755   N756    1.420   .     A
N756   N757    1.420   .     A
N757   N758    1.420   .     A
N758   N761    1.420   .     A
N758   N817    1.420   .     S
N759   N764    1.420   .     A
N759   N760    1.420   .     A
N760   N761    1.420   .     A
N761   N762    1.420   .     A
N762   N765    1.420   .     A
N762   N821    1.420   .     S
N763   N768    1.420   .     A
N763   N764    1.420   .     A
N764   N765    1.420   .     A
N765   N766    1.420   .     A
N766   N769    1.420   .     A
N766   N825    1.420   .     S
N767   N771    1.420   .     A
N767   N768    1.420   .     A
N768   N769    1.420   .     A
N769   N770    1.420   .     A
N770   N772    1.420   .     A
N770   N829    1.420   .     S
N771   N772    1.420   .     A
N771   H775    1.140   .     S
N772   H776    1.140   .     S
N777   N782    1.420   .     A
N777   N778    1.420   .     A
N778   N779    1.420   .     A
N778   H835    1.140   .     S
N779   N780    1.420   .     A
N779   H836    1.140   .     S
N780   N783    1.420   .     A
N780   N839    1.420   .     S
N781   N786    1.420   .     A
N781   N782    1.420   .     A
N782   N783    1.420   .     A
N783   N784    1.420   .     A
N784   N787    1.420   .     A
N784   N843    1.420   .     S
N785   N790    1.420   .     A
N785   N786    1.420   .     A
N786   N787    1.420   .     A
N787   N788    1.420   .     A
N788   N791    1.420   .     A
N788   N847    1.420   .     S
N789   N794    1.420   .     A
N789   N790    1.420   .     A
N790   N791    1.420   .     A
N791   N792    1.420   .     A
N792   N795    1.420   .     A
N792   N851    1.420   .     S
N793   N798    1.420   .     A
N793   N794    1.420   .     A
N794   N795    1.420   .     A
N795   N796    1.420   .     A
N796   N799    1.420   .     A
N796   N855    1.420   .     S
N797   N802    1.420   .     A
N797   N798    1.420   .     A
N798   N799    1.420   .     A
N799   N800    1.420   .     A
N800   N803    1.420   .     A
N800   N859    1.420   .     S
N801   N806    1.420   .     A
N801   N802    1.420   .     A
N802   N803    1.420   .     A
N803   N804    1.420   .     A
N804   N807    1.420   .     A
N804   N863    1.420   .     S
N805   N810    1.420   .     A
N805   N806    1.420   .     A
N806   N807    1.420   .     A
N807   N808    1.420   .     A
N808   N811    1.420   .     A
N808   N867    1.420   .     S
N809   N814    1.420   .     A
N809   N810    1.420   .     A
N810   N811    1.420   .     A
N811   N812    1.420   .     A
N812   N815    1.420   .     A
N812   N871    1.420   .     S
N813   N818    1.420   .     A
N813   N814    1.420   .     A
N814   N815    1.420   .     A
N815   N816    1.420   .     A
N816   N819    1.420   .     A
N816   N875    1.420   .     S
N817   N822    1.420   .     A
N817   N818    1.420   .     A
N818   N819    1.420   .     A
N819   N820    1.420   .     A
N820   N823    1.420   .     A
N820   N879    1.420   .     S
N821   N826    1.420   .     A
N821   N822    1.420   .     A
N822   N823    1.420   .     A
N823   N824    1.420   .     A
N824   N827    1.420   .     A
N824   N883    1.420   .     S
N825   N830    1.420   .     A
N825   N826    1.420   .     A
N826   N827    1.420   .     A
N827   N828    1.420   .     A
N828   N831    1.420   .     A
N828   N887    1.420   .     S
N829   N833    1.420   .     A
N829   N830    1.420   .     A
N830   N831    1.420   .     A
N831   N832    1.420   .     A
N832   N834    1.420   .     A
N832   N891    1.420   .     S
N833   N834    1.420   .     A
N833   H837    1.140   .     S
N834   H838    1.140   .     S
N839   N844    1.420   .     A
N839   N840    1.420   .     A
N840   N841    1.420   .     A
N840   H897    1.140   .     S
N841   N842    1.420   .     A
N841   H898    1.140   .     S
N842   N845    1.420   .     A
N842   N1      1.420   1_565 S
N843   N848    1.420   .     A
N843   N844    1.420   .     A
N844   N845    1.420   .     A
N845   N846    1.420   .     A
N846   N849    1.420   .     A
N846   N5      1.420   1_565 S
N847   N852    1.420   .     A
N847   N848    1.420   .     A
N848   N849    1.420   .     A
N849   N850    1.420   .     A
N850   N853    1.420   .     A
N850   N9      1.420   1_565 S
N851   N856    1.420   .     A
N851   N852    1.420   .     A
N852   N853    1.420   .     A
N853   N854    1.420   .     A
N854   N857    1.420   .     A
N854   N13     1.420   1_565 S
N855   N860    1.420   .     A
N855   N856    1.420   .     A
N856   N857    1.420   .     A
N857   N858    1.420   .     A
N858   N861    1.420   .     A
N858   N17     1.420   1_565 S
N859   N864    1.420   .     A
N859   N860    1.420   .     A
N860   N861    1.420   .     A
N861   N862    1.420   .     A
N862   N865    1.420   .     A
N862   N21     1.420   1_565 S
N863   N868    1.420   .     A
N863   N864    1.420   .     A
N864   N865    1.420   .     A
N865   N866    1.420   .     A
N866   N869    1.420   .     A
N866   N25     1.420   1_565 S
N867   N872    1.420   .     A
N867   N868    1.420   .     A
N868   N869    1.420   .     A
N869   N870    1.420   .     A
N870   N873    1.420   .     A
N870   N29     1.420   1_565 S
N871   N876    1.420   .     A
N871   N872    1.420   .     A
N872   N873    1.420   .     A
N873   N874    1.420   .     A
N874   N877    1.420   .     A
N874   N33     1.420   1_565 S
N875   N880    1.420   .     A
N875   N876    1.420   .     A
N876   N877    1.420   .     A
N877   N878    1.420   .     A
N878   N881    1.420   .     A
N878   N37     1.420   1_565 S
N879   N884    1.420   .     A
N879   N880    1.420   .     A
N880   N881    1.420   .     A
N881   N882    1.420   .     A
N882   N885    1.420   .     A
N882   N41     1.420   1_565 S
N883   N888    1.420   .     A
N883   N884    1.420   .     A
N884   N885    1.420   .     A
N885   N886    1.420   .     A
N886   N889    1.420   .     A
N886   N45     1.420   1_565 S
N887   N892    1.420   .     A
N887   N888    1.420   .     A
N888   N889    1.420   .     A
N889   N890    1.420   .     A
N890   N893    1.420   .     A
N890   N49     1.420   1_565 S
N891   N895    1.420   .     A
N891   N892    1.420   .     A
N892   N893    1.420   .     A
N893   N894    1.420   .     A
N894   N896    1.420   .     A
N894   N53     1.420   1_565 S
N895   N896    1.420   .     A
N895   H899    1.140   .     S
N896   H900    1.140   .     S
