data_29112005
_audit_creation_date              2020-04-13
_audit_creation_method            'Materials Studio'
_symmetry_space_group_name_H-M    'P1'
_symmetry_Int_Tables_number       1
_symmetry_cell_setting            triclinic
loop_
_symmetry_equiv_pos_as_xyz
  x,y,z
_cell_length_a                    60.0000
_cell_length_b                    127.8253
_cell_length_c                    10.0000
_cell_angle_alpha                 90.0000
_cell_angle_beta                  90.0000
_cell_angle_gamma                 90.0000
loop_
_atom_site_label
_atom_site_type_symbol
_atom_site_fract_x
_atom_site_fract_y
_atom_site_fract_z
_atom_site_U_iso_or_equiv
_atom_site_adp_type
_atom_site_occupancy
N1     N     0.22688   0.00558   0.50000   0.00000  Uiso   1.00
N2     N     0.20638   0.01114   0.50000   0.00000  Uiso   1.00
N3     N     0.20638   0.02225   0.50000   0.00000  Uiso   1.00
N4     N     0.22688   0.02780   0.50000   0.00000  Uiso   1.00
N5     N     0.26788   0.00558   0.50000   0.00000  Uiso   1.00
N6     N     0.24738   0.01114   0.50000   0.00000  Uiso   1.00
N7     N     0.24738   0.02225   0.50000   0.00000  Uiso   1.00
N8     N     0.26788   0.02780   0.50000   0.00000  Uiso   1.00
N9     N     0.30888   0.00558   0.50000   0.00000  Uiso   1.00
N10    N     0.28838   0.01114   0.50000   0.00000  Uiso   1.00
N11    N     0.28838   0.02225   0.50000   0.00000  Uiso   1.00
N12    N     0.30888   0.02780   0.50000   0.00000  Uiso   1.00
N13    N     0.34988   0.00558   0.50000   0.00000  Uiso   1.00
N14    N     0.32938   0.01114   0.50000   0.00000  Uiso   1.00
N15    N     0.32938   0.02225   0.50000   0.00000  Uiso   1.00
N16    N     0.34988   0.02780   0.50000   0.00000  Uiso   1.00
N17    N     0.39088   0.00558   0.50000   0.00000  Uiso   1.00
N18    N     0.37038   0.01114   0.50000   0.00000  Uiso   1.00
N19    N     0.37038   0.02225   0.50000   0.00000  Uiso   1.00
N20    N     0.39088   0.02780   0.50000   0.00000  Uiso   1.00
N21    N     0.43188   0.00558   0.50000   0.00000  Uiso   1.00
N22    N     0.41138   0.01114   0.50000   0.00000  Uiso   1.00
N23    N     0.41138   0.02225   0.50000   0.00000  Uiso   1.00
N24    N     0.43188   0.02780   0.50000   0.00000  Uiso   1.00
N25    N     0.47288   0.00558   0.50000   0.00000  Uiso   1.00
N26    N     0.45238   0.01114   0.50000   0.00000  Uiso   1.00
N27    N     0.45238   0.02225   0.50000   0.00000  Uiso   1.00
N28    N     0.47288   0.02780   0.50000   0.00000  Uiso   1.00
N29    N     0.51388   0.00558   0.50000   0.00000  Uiso   1.00
N30    N     0.49338   0.01114   0.50000   0.00000  Uiso   1.00
N31    N     0.49338   0.02225   0.50000   0.00000  Uiso   1.00
N32    N     0.51388   0.02780   0.50000   0.00000  Uiso   1.00
N33    N     0.55488   0.00558   0.50000   0.00000  Uiso   1.00
N34    N     0.53438   0.01114   0.50000   0.00000  Uiso   1.00
N35    N     0.53438   0.02225   0.50000   0.00000  Uiso   1.00
N36    N     0.55488   0.02780   0.50000   0.00000  Uiso   1.00
N37    N     0.59588   0.00558   0.50000   0.00000  Uiso   1.00
N38    N     0.57538   0.01114   0.50000   0.00000  Uiso   1.00
N39    N     0.57538   0.02225   0.50000   0.00000  Uiso   1.00
N40    N     0.59588   0.02780   0.50000   0.00000  Uiso   1.00
N41    N     0.63688   0.00558   0.50000   0.00000  Uiso   1.00
N42    N     0.61638   0.01114   0.50000   0.00000  Uiso   1.00
N43    N     0.61638   0.02225   0.50000   0.00000  Uiso   1.00
N44    N     0.63688   0.02780   0.50000   0.00000  Uiso   1.00
N45    N     0.67788   0.00558   0.50000   0.00000  Uiso   1.00
N46    N     0.65738   0.01114   0.50000   0.00000  Uiso   1.00
N47    N     0.65738   0.02225   0.50000   0.00000  Uiso   1.00
N48    N     0.67788   0.02780   0.50000   0.00000  Uiso   1.00
N49    N     0.71888   0.00558   0.50000   0.00000  Uiso   1.00
N50    N     0.69838   0.01114   0.50000   0.00000  Uiso   1.00
N51    N     0.69838   0.02225   0.50000   0.00000  Uiso   1.00
N52    N     0.71888   0.02780   0.50000   0.00000  Uiso   1.00
N53    N     0.75988   0.00558   0.50000   0.00000  Uiso   1.00
N54    N     0.73938   0.01114   0.50000   0.00000  Uiso   1.00
N55    N     0.73938   0.02225   0.50000   0.00000  Uiso   1.00
N56    N     0.75988   0.02780   0.50000   0.00000  Uiso   1.00
N57    N     0.78038   0.01114   0.50000   0.00000  Uiso   1.00
N58    N     0.78038   0.02225   0.50000   0.00000  Uiso   1.00
H59    H     0.18993   0.00668   0.50000   0.00000  Uiso   1.00
H60    H     0.18993   0.02671   0.50000   0.00000  Uiso   1.00
H61    H     0.79684   0.00668   0.50000   0.00000  Uiso   1.00
H62    H     0.79684   0.02671   0.50000   0.00000  Uiso   1.00
N63    N     0.22688   0.03892   0.50000   0.00000  Uiso   1.00
N64    N     0.20638   0.04447   0.50000   0.00000  Uiso   1.00
N65    N     0.20638   0.05558   0.50000   0.00000  Uiso   1.00
N66    N     0.22688   0.06114   0.50000   0.00000  Uiso   1.00
N67    N     0.26788   0.03892   0.50000   0.00000  Uiso   1.00
N68    N     0.24738   0.04447   0.50000   0.00000  Uiso   1.00
N69    N     0.24738   0.05558   0.50000   0.00000  Uiso   1.00
N70    N     0.26788   0.06114   0.50000   0.00000  Uiso   1.00
N71    N     0.30888   0.03892   0.50000   0.00000  Uiso   1.00
N72    N     0.28838   0.04447   0.50000   0.00000  Uiso   1.00
N73    N     0.28838   0.05558   0.50000   0.00000  Uiso   1.00
N74    N     0.30888   0.06114   0.50000   0.00000  Uiso   1.00
N75    N     0.34988   0.03892   0.50000   0.00000  Uiso   1.00
N76    N     0.32938   0.04447   0.50000   0.00000  Uiso   1.00
N77    N     0.32938   0.05558   0.50000   0.00000  Uiso   1.00
N78    N     0.34988   0.06114   0.50000   0.00000  Uiso   1.00
N79    N     0.39088   0.03892   0.50000   0.00000  Uiso   1.00
N80    N     0.37038   0.04447   0.50000   0.00000  Uiso   1.00
N81    N     0.37038   0.05558   0.50000   0.00000  Uiso   1.00
N82    N     0.39088   0.06114   0.50000   0.00000  Uiso   1.00
N83    N     0.43188   0.03892   0.50000   0.00000  Uiso   1.00
N84    N     0.41138   0.04447   0.50000   0.00000  Uiso   1.00
N85    N     0.41138   0.05558   0.50000   0.00000  Uiso   1.00
N86    N     0.43188   0.06114   0.50000   0.00000  Uiso   1.00
N87    N     0.47288   0.03892   0.50000   0.00000  Uiso   1.00
N88    N     0.45238   0.04447   0.50000   0.00000  Uiso   1.00
N89    N     0.45238   0.05558   0.50000   0.00000  Uiso   1.00
N90    N     0.47288   0.06114   0.50000   0.00000  Uiso   1.00
N91    N     0.51388   0.03892   0.50000   0.00000  Uiso   1.00
N92    N     0.49338   0.04447   0.50000   0.00000  Uiso   1.00
N93    N     0.49338   0.05558   0.50000   0.00000  Uiso   1.00
N94    N     0.51388   0.06114   0.50000   0.00000  Uiso   1.00
N95    N     0.55488   0.03892   0.50000   0.00000  Uiso   1.00
N96    N     0.53438   0.04447   0.50000   0.00000  Uiso   1.00
N97    N     0.53438   0.05558   0.50000   0.00000  Uiso   1.00
N98    N     0.55488   0.06114   0.50000   0.00000  Uiso   1.00
N99    N     0.59588   0.03892   0.50000   0.00000  Uiso   1.00
N100   N     0.57538   0.04447   0.50000   0.00000  Uiso   1.00
N101   N     0.57538   0.05558   0.50000   0.00000  Uiso   1.00
N102   N     0.59588   0.06114   0.50000   0.00000  Uiso   1.00
N103   N     0.63688   0.03892   0.50000   0.00000  Uiso   1.00
N104   N     0.61638   0.04447   0.50000   0.00000  Uiso   1.00
N105   N     0.61638   0.05558   0.50000   0.00000  Uiso   1.00
N106   N     0.63688   0.06114   0.50000   0.00000  Uiso   1.00
N107   N     0.67788   0.03892   0.50000   0.00000  Uiso   1.00
N108   N     0.65738   0.04447   0.50000   0.00000  Uiso   1.00
N109   N     0.65738   0.05558   0.50000   0.00000  Uiso   1.00
N110   N     0.67788   0.06114   0.50000   0.00000  Uiso   1.00
N111   N     0.71888   0.03892   0.50000   0.00000  Uiso   1.00
N112   N     0.69838   0.04447   0.50000   0.00000  Uiso   1.00
N113   N     0.69838   0.05558   0.50000   0.00000  Uiso   1.00
N114   N     0.71888   0.06114   0.50000   0.00000  Uiso   1.00
N115   N     0.75988   0.03892   0.50000   0.00000  Uiso   1.00
N116   N     0.73938   0.04447   0.50000   0.00000  Uiso   1.00
N117   N     0.73938   0.05558   0.50000   0.00000  Uiso   1.00
N118   N     0.75988   0.06114   0.50000   0.00000  Uiso   1.00
N119   N     0.78038   0.04447   0.50000   0.00000  Uiso   1.00
N120   N     0.78038   0.05558   0.50000   0.00000  Uiso   1.00
H121   H     0.18993   0.04001   0.50000   0.00000  Uiso   1.00
H122   H     0.18993   0.06004   0.50000   0.00000  Uiso   1.00
H123   H     0.79684   0.04001   0.50000   0.00000  Uiso   1.00
H124   H     0.79684   0.06004   0.50000   0.00000  Uiso   1.00
N125   N     0.22688   0.07225   0.50000   0.00000  Uiso   1.00
N126   N     0.20638   0.07780   0.50000   0.00000  Uiso   1.00
N127   N     0.20638   0.08892   0.50000   0.00000  Uiso   1.00
N128   N     0.22688   0.09447   0.50000   0.00000  Uiso   1.00
N129   N     0.26788   0.07225   0.50000   0.00000  Uiso   1.00
N130   N     0.24738   0.07780   0.50000   0.00000  Uiso   1.00
N131   N     0.24738   0.08892   0.50000   0.00000  Uiso   1.00
N132   N     0.26788   0.09447   0.50000   0.00000  Uiso   1.00
N133   N     0.30888   0.07225   0.50000   0.00000  Uiso   1.00
N134   N     0.28838   0.07780   0.50000   0.00000  Uiso   1.00
N135   N     0.28838   0.08892   0.50000   0.00000  Uiso   1.00
N136   N     0.30888   0.09447   0.50000   0.00000  Uiso   1.00
N137   N     0.34988   0.07225   0.50000   0.00000  Uiso   1.00
N138   N     0.32938   0.07780   0.50000   0.00000  Uiso   1.00
N139   N     0.32938   0.08892   0.50000   0.00000  Uiso   1.00
N140   N     0.34988   0.09447   0.50000   0.00000  Uiso   1.00
N141   N     0.39088   0.07225   0.50000   0.00000  Uiso   1.00
N142   N     0.37038   0.07780   0.50000   0.00000  Uiso   1.00
N143   N     0.37038   0.08892   0.50000   0.00000  Uiso   1.00
N144   N     0.39088   0.09447   0.50000   0.00000  Uiso   1.00
N145   N     0.43188   0.07225   0.50000   0.00000  Uiso   1.00
N146   N     0.41138   0.07780   0.50000   0.00000  Uiso   1.00
N147   N     0.41138   0.08892   0.50000   0.00000  Uiso   1.00
N148   N     0.43188   0.09447   0.50000   0.00000  Uiso   1.00
N149   N     0.47288   0.07225   0.50000   0.00000  Uiso   1.00
N150   N     0.45238   0.07780   0.50000   0.00000  Uiso   1.00
N151   N     0.45238   0.08892   0.50000   0.00000  Uiso   1.00
N152   N     0.47288   0.09447   0.50000   0.00000  Uiso   1.00
N153   N     0.51388   0.07225   0.50000   0.00000  Uiso   1.00
N154   N     0.49338   0.07780   0.50000   0.00000  Uiso   1.00
N155   N     0.49338   0.08892   0.50000   0.00000  Uiso   1.00
N156   N     0.51388   0.09447   0.50000   0.00000  Uiso   1.00
N157   N     0.55488   0.07225   0.50000   0.00000  Uiso   1.00
N158   N     0.53438   0.07780   0.50000   0.00000  Uiso   1.00
N159   N     0.53438   0.08892   0.50000   0.00000  Uiso   1.00
N160   N     0.55488   0.09447   0.50000   0.00000  Uiso   1.00
N161   N     0.59588   0.07225   0.50000   0.00000  Uiso   1.00
N162   N     0.57538   0.07780   0.50000   0.00000  Uiso   1.00
N163   N     0.57538   0.08892   0.50000   0.00000  Uiso   1.00
N164   N     0.59588   0.09447   0.50000   0.00000  Uiso   1.00
N165   N     0.63688   0.07225   0.50000   0.00000  Uiso   1.00
N166   N     0.61638   0.07780   0.50000   0.00000  Uiso   1.00
N167   N     0.61638   0.08892   0.50000   0.00000  Uiso   1.00
N168   N     0.63688   0.09447   0.50000   0.00000  Uiso   1.00
N169   N     0.67788   0.07225   0.50000   0.00000  Uiso   1.00
N170   N     0.65738   0.07780   0.50000   0.00000  Uiso   1.00
N171   N     0.65738   0.08892   0.50000   0.00000  Uiso   1.00
N172   N     0.67788   0.09447   0.50000   0.00000  Uiso   1.00
N173   N     0.71888   0.07225   0.50000   0.00000  Uiso   1.00
N174   N     0.69838   0.07780   0.50000   0.00000  Uiso   1.00
N175   N     0.69838   0.08892   0.50000   0.00000  Uiso   1.00
N176   N     0.71888   0.09447   0.50000   0.00000  Uiso   1.00
N177   N     0.75988   0.07225   0.50000   0.00000  Uiso   1.00
N178   N     0.73938   0.07780   0.50000   0.00000  Uiso   1.00
N179   N     0.73938   0.08892   0.50000   0.00000  Uiso   1.00
N180   N     0.75988   0.09447   0.50000   0.00000  Uiso   1.00
N181   N     0.78038   0.07780   0.50000   0.00000  Uiso   1.00
N182   N     0.78038   0.08892   0.50000   0.00000  Uiso   1.00
H183   H     0.18993   0.07335   0.50000   0.00000  Uiso   1.00
H184   H     0.18993   0.09337   0.50000   0.00000  Uiso   1.00
H185   H     0.79684   0.07335   0.50000   0.00000  Uiso   1.00
H186   H     0.79684   0.09337   0.50000   0.00000  Uiso   1.00
N187   N     0.22688   0.10558   0.50000   0.00000  Uiso   1.00
N188   N     0.20638   0.11114   0.50000   0.00000  Uiso   1.00
N189   N     0.20638   0.12225   0.50000   0.00000  Uiso   1.00
N190   N     0.22688   0.12780   0.50000   0.00000  Uiso   1.00
N191   N     0.26788   0.10558   0.50000   0.00000  Uiso   1.00
N192   N     0.24738   0.11114   0.50000   0.00000  Uiso   1.00
N193   N     0.24738   0.12225   0.50000   0.00000  Uiso   1.00
N194   N     0.26788   0.12780   0.50000   0.00000  Uiso   1.00
N195   N     0.30888   0.10558   0.50000   0.00000  Uiso   1.00
N196   N     0.28838   0.11114   0.50000   0.00000  Uiso   1.00
N197   N     0.28838   0.12225   0.50000   0.00000  Uiso   1.00
N198   N     0.30888   0.12780   0.50000   0.00000  Uiso   1.00
N199   N     0.34988   0.10558   0.50000   0.00000  Uiso   1.00
N200   N     0.32938   0.11114   0.50000   0.00000  Uiso   1.00
N201   N     0.32938   0.12225   0.50000   0.00000  Uiso   1.00
N202   N     0.34988   0.12780   0.50000   0.00000  Uiso   1.00
N203   N     0.39088   0.10558   0.50000   0.00000  Uiso   1.00
N204   N     0.37038   0.11114   0.50000   0.00000  Uiso   1.00
N205   N     0.37038   0.12225   0.50000   0.00000  Uiso   1.00
N206   N     0.39088   0.12780   0.50000   0.00000  Uiso   1.00
N207   N     0.43188   0.10558   0.50000   0.00000  Uiso   1.00
N208   N     0.41138   0.11114   0.50000   0.00000  Uiso   1.00
N209   N     0.41138   0.12225   0.50000   0.00000  Uiso   1.00
N210   N     0.43188   0.12780   0.50000   0.00000  Uiso   1.00
N211   N     0.47288   0.10558   0.50000   0.00000  Uiso   1.00
N212   N     0.45238   0.11114   0.50000   0.00000  Uiso   1.00
N213   N     0.45238   0.12225   0.50000   0.00000  Uiso   1.00
N214   N     0.47288   0.12780   0.50000   0.00000  Uiso   1.00
N215   N     0.51388   0.10558   0.50000   0.00000  Uiso   1.00
N216   N     0.49338   0.11114   0.50000   0.00000  Uiso   1.00
N217   N     0.49338   0.12225   0.50000   0.00000  Uiso   1.00
N218   N     0.51388   0.12780   0.50000   0.00000  Uiso   1.00
N219   N     0.55488   0.10558   0.50000   0.00000  Uiso   1.00
N220   N     0.53438   0.11114   0.50000   0.00000  Uiso   1.00
N221   N     0.53438   0.12225   0.50000   0.00000  Uiso   1.00
N222   N     0.55488   0.12780   0.50000   0.00000  Uiso   1.00
N223   N     0.59588   0.10558   0.50000   0.00000  Uiso   1.00
N224   N     0.57538   0.11114   0.50000   0.00000  Uiso   1.00
N225   N     0.57538   0.12225   0.50000   0.00000  Uiso   1.00
N226   N     0.59588   0.12780   0.50000   0.00000  Uiso   1.00
N227   N     0.63688   0.10558   0.50000   0.00000  Uiso   1.00
N228   N     0.61638   0.11114   0.50000   0.00000  Uiso   1.00
N229   N     0.61638   0.12225   0.50000   0.00000  Uiso   1.00
N230   N     0.63688   0.12780   0.50000   0.00000  Uiso   1.00
N231   N     0.67788   0.10558   0.50000   0.00000  Uiso   1.00
N232   N     0.65738   0.11114   0.50000   0.00000  Uiso   1.00
N233   N     0.65738   0.12225   0.50000   0.00000  Uiso   1.00
N234   N     0.67788   0.12780   0.50000   0.00000  Uiso   1.00
N235   N     0.71888   0.10558   0.50000   0.00000  Uiso   1.00
N236   N     0.69838   0.11114   0.50000   0.00000  Uiso   1.00
N237   N     0.69838   0.12225   0.50000   0.00000  Uiso   1.00
N238   N     0.71888   0.12780   0.50000   0.00000  Uiso   1.00
N239   N     0.75988   0.10558   0.50000   0.00000  Uiso   1.00
N240   N     0.73938   0.11114   0.50000   0.00000  Uiso   1.00
N241   N     0.73938   0.12225   0.50000   0.00000  Uiso   1.00
N242   N     0.75988   0.12780   0.50000   0.00000  Uiso   1.00
N243   N     0.78038   0.11114   0.50000   0.00000  Uiso   1.00
N244   N     0.78038   0.12225   0.50000   0.00000  Uiso   1.00
H245   H     0.18993   0.10668   0.50000   0.00000  Uiso   1.00
H246   H     0.18993   0.12671   0.50000   0.00000  Uiso   1.00
H247   H     0.79684   0.10668   0.50000   0.00000  Uiso   1.00
H248   H     0.79684   0.12671   0.50000   0.00000  Uiso   1.00
N249   N     0.22688   0.13892   0.50000   0.00000  Uiso   1.00
N250   N     0.20638   0.14447   0.50000   0.00000  Uiso   1.00
N251   N     0.20638   0.15558   0.50000   0.00000  Uiso   1.00
N252   N     0.22688   0.16114   0.50000   0.00000  Uiso   1.00
N253   N     0.26788   0.13892   0.50000   0.00000  Uiso   1.00
N254   N     0.24738   0.14447   0.50000   0.00000  Uiso   1.00
N255   N     0.24738   0.15558   0.50000   0.00000  Uiso   1.00
N256   N     0.26788   0.16114   0.50000   0.00000  Uiso   1.00
N257   N     0.30888   0.13892   0.50000   0.00000  Uiso   1.00
N258   N     0.28838   0.14447   0.50000   0.00000  Uiso   1.00
N259   N     0.28838   0.15558   0.50000   0.00000  Uiso   1.00
N260   N     0.30888   0.16114   0.50000   0.00000  Uiso   1.00
N261   N     0.34988   0.13892   0.50000   0.00000  Uiso   1.00
N262   N     0.32938   0.14447   0.50000   0.00000  Uiso   1.00
N263   N     0.32938   0.15558   0.50000   0.00000  Uiso   1.00
N264   N     0.34988   0.16114   0.50000   0.00000  Uiso   1.00
N265   N     0.39088   0.13892   0.50000   0.00000  Uiso   1.00
N266   N     0.37038   0.14447   0.50000   0.00000  Uiso   1.00
N267   N     0.37038   0.15558   0.50000   0.00000  Uiso   1.00
N268   N     0.39088   0.16114   0.50000   0.00000  Uiso   1.00
N269   N     0.43188   0.13892   0.50000   0.00000  Uiso   1.00
N270   N     0.41138   0.14447   0.50000   0.00000  Uiso   1.00
N271   N     0.41138   0.15558   0.50000   0.00000  Uiso   1.00
N272   N     0.43188   0.16114   0.50000   0.00000  Uiso   1.00
N273   N     0.47288   0.13892   0.50000   0.00000  Uiso   1.00
N274   N     0.45238   0.14447   0.50000   0.00000  Uiso   1.00
N275   N     0.45238   0.15558   0.50000   0.00000  Uiso   1.00
N276   N     0.47288   0.16114   0.50000   0.00000  Uiso   1.00
N277   N     0.51388   0.13892   0.50000   0.00000  Uiso   1.00
N278   N     0.49338   0.14447   0.50000   0.00000  Uiso   1.00
N279   N     0.49338   0.15558   0.50000   0.00000  Uiso   1.00
N280   N     0.51388   0.16114   0.50000   0.00000  Uiso   1.00
N281   N     0.55488   0.13892   0.50000   0.00000  Uiso   1.00
N282   N     0.53438   0.14447   0.50000   0.00000  Uiso   1.00
N283   N     0.53438   0.15558   0.50000   0.00000  Uiso   1.00
N284   N     0.55488   0.16114   0.50000   0.00000  Uiso   1.00
N285   N     0.59588   0.13892   0.50000   0.00000  Uiso   1.00
N286   N     0.57538   0.14447   0.50000   0.00000  Uiso   1.00
N287   N     0.57538   0.15558   0.50000   0.00000  Uiso   1.00
N288   N     0.59588   0.16114   0.50000   0.00000  Uiso   1.00
N289   N     0.63688   0.13892   0.50000   0.00000  Uiso   1.00
N290   N     0.61638   0.14447   0.50000   0.00000  Uiso   1.00
N291   N     0.61638   0.15558   0.50000   0.00000  Uiso   1.00
N292   N     0.63688   0.16114   0.50000   0.00000  Uiso   1.00
N293   N     0.67788   0.13892   0.50000   0.00000  Uiso   1.00
N294   N     0.65738   0.14447   0.50000   0.00000  Uiso   1.00
N295   N     0.65738   0.15558   0.50000   0.00000  Uiso   1.00
N296   N     0.67788   0.16114   0.50000   0.00000  Uiso   1.00
N297   N     0.71888   0.13892   0.50000   0.00000  Uiso   1.00
N298   N     0.69838   0.14447   0.50000   0.00000  Uiso   1.00
N299   N     0.69838   0.15558   0.50000   0.00000  Uiso   1.00
N300   N     0.71888   0.16114   0.50000   0.00000  Uiso   1.00
N301   N     0.75988   0.13892   0.50000   0.00000  Uiso   1.00
N302   N     0.73938   0.14447   0.50000   0.00000  Uiso   1.00
N303   N     0.73938   0.15558   0.50000   0.00000  Uiso   1.00
N304   N     0.75988   0.16114   0.50000   0.00000  Uiso   1.00
N305   N     0.78038   0.14447   0.50000   0.00000  Uiso   1.00
N306   N     0.78038   0.15558   0.50000   0.00000  Uiso   1.00
H307   H     0.18993   0.14001   0.50000   0.00000  Uiso   1.00
H308   H     0.18993   0.16004   0.50000   0.00000  Uiso   1.00
H309   H     0.79684   0.14001   0.50000   0.00000  Uiso   1.00
H310   H     0.79684   0.16004   0.50000   0.00000  Uiso   1.00
C311   C     0.39088   0.17225   0.50000   0.00000  Uiso   1.00
C312   C     0.39088   0.19447   0.50000   0.00000  Uiso   1.00
C313   C     0.43188   0.17225   0.50000   0.00000  Uiso   1.00
C314   C     0.41138   0.17780   0.50000   0.00000  Uiso   1.00
C315   C     0.41138   0.18892   0.50000   0.00000  Uiso   1.00
C316   C     0.43188   0.19447   0.50000   0.00000  Uiso   1.00
C317   C     0.47288   0.17225   0.50000   0.00000  Uiso   1.00
C318   C     0.45238   0.17780   0.50000   0.00000  Uiso   1.00
C319   C     0.45238   0.18892   0.50000   0.00000  Uiso   1.00
C320   C     0.47288   0.19447   0.50000   0.00000  Uiso   1.00
C321   C     0.51388   0.17225   0.50000   0.00000  Uiso   1.00
C322   C     0.49338   0.17780   0.50000   0.00000  Uiso   1.00
C323   C     0.49338   0.18892   0.50000   0.00000  Uiso   1.00
C324   C     0.51388   0.19447   0.50000   0.00000  Uiso   1.00
C325   C     0.55488   0.17225   0.50000   0.00000  Uiso   1.00
C326   C     0.53438   0.17780   0.50000   0.00000  Uiso   1.00
C327   C     0.53438   0.18892   0.50000   0.00000  Uiso   1.00
C328   C     0.55488   0.19447   0.50000   0.00000  Uiso   1.00
C329   C     0.59588   0.17225   0.50000   0.00000  Uiso   1.00
C330   C     0.57538   0.17780   0.50000   0.00000  Uiso   1.00
C331   C     0.57538   0.18892   0.50000   0.00000  Uiso   1.00
C332   C     0.59588   0.19447   0.50000   0.00000  Uiso   1.00
C333   C     0.39088   0.20558   0.50000   0.00000  Uiso   1.00
C334   C     0.39088   0.22780   0.50000   0.00000  Uiso   1.00
C335   C     0.43188   0.20558   0.50000   0.00000  Uiso   1.00
C336   C     0.41138   0.21114   0.50000   0.00000  Uiso   1.00
C337   C     0.41138   0.22225   0.50000   0.00000  Uiso   1.00
C338   C     0.43188   0.22780   0.50000   0.00000  Uiso   1.00
C339   C     0.47288   0.20558   0.50000   0.00000  Uiso   1.00
C340   C     0.45238   0.21114   0.50000   0.00000  Uiso   1.00
C341   C     0.45238   0.22225   0.50000   0.00000  Uiso   1.00
C342   C     0.47288   0.22780   0.50000   0.00000  Uiso   1.00
C343   C     0.51388   0.20558   0.50000   0.00000  Uiso   1.00
C344   C     0.49338   0.21114   0.50000   0.00000  Uiso   1.00
C345   C     0.49338   0.22225   0.50000   0.00000  Uiso   1.00
C346   C     0.51388   0.22780   0.50000   0.00000  Uiso   1.00
C347   C     0.55488   0.20558   0.50000   0.00000  Uiso   1.00
C348   C     0.53438   0.21114   0.50000   0.00000  Uiso   1.00
C349   C     0.53438   0.22225   0.50000   0.00000  Uiso   1.00
C350   C     0.55488   0.22780   0.50000   0.00000  Uiso   1.00
C351   C     0.59588   0.20558   0.50000   0.00000  Uiso   1.00
C352   C     0.57538   0.21114   0.50000   0.00000  Uiso   1.00
C353   C     0.57538   0.22225   0.50000   0.00000  Uiso   1.00
C354   C     0.59588   0.22780   0.50000   0.00000  Uiso   1.00
C355   C     0.39088   0.23892   0.50000   0.00000  Uiso   1.00
C356   C     0.39088   0.26114   0.50000   0.00000  Uiso   1.00
C357   C     0.43188   0.23892   0.50000   0.00000  Uiso   1.00
C358   C     0.41138   0.24447   0.50000   0.00000  Uiso   1.00
C359   C     0.41138   0.25558   0.50000   0.00000  Uiso   1.00
C360   C     0.43188   0.26114   0.50000   0.00000  Uiso   1.00
C361   C     0.47288   0.23892   0.50000   0.00000  Uiso   1.00
C362   C     0.45238   0.24447   0.50000   0.00000  Uiso   1.00
C363   C     0.45238   0.25558   0.50000   0.00000  Uiso   1.00
C364   C     0.47288   0.26114   0.50000   0.00000  Uiso   1.00
C365   C     0.51388   0.23892   0.50000   0.00000  Uiso   1.00
C366   C     0.49338   0.24447   0.50000   0.00000  Uiso   1.00
C367   C     0.49338   0.25558   0.50000   0.00000  Uiso   1.00
C368   C     0.51388   0.26114   0.50000   0.00000  Uiso   1.00
C369   C     0.55488   0.23892   0.50000   0.00000  Uiso   1.00
C370   C     0.53438   0.24447   0.50000   0.00000  Uiso   1.00
C371   C     0.53438   0.25558   0.50000   0.00000  Uiso   1.00
C372   C     0.55488   0.26114   0.50000   0.00000  Uiso   1.00
C373   C     0.59588   0.23892   0.50000   0.00000  Uiso   1.00
C374   C     0.57538   0.24447   0.50000   0.00000  Uiso   1.00
C375   C     0.57538   0.25558   0.50000   0.00000  Uiso   1.00
C376   C     0.59588   0.26114   0.50000   0.00000  Uiso   1.00
C377   C     0.39088   0.27225   0.50000   0.00000  Uiso   1.00
C378   C     0.39088   0.29447   0.50000   0.00000  Uiso   1.00
C379   C     0.43188   0.27225   0.50000   0.00000  Uiso   1.00
C380   C     0.41138   0.27780   0.50000   0.00000  Uiso   1.00
C381   C     0.41138   0.28892   0.50000   0.00000  Uiso   1.00
C382   C     0.43188   0.29447   0.50000   0.00000  Uiso   1.00
C383   C     0.47288   0.27225   0.50000   0.00000  Uiso   1.00
C384   C     0.45238   0.27780   0.50000   0.00000  Uiso   1.00
C385   C     0.45238   0.28892   0.50000   0.00000  Uiso   1.00
C386   C     0.47288   0.29447   0.50000   0.00000  Uiso   1.00
C387   C     0.51388   0.27225   0.50000   0.00000  Uiso   1.00
C388   C     0.49338   0.27780   0.50000   0.00000  Uiso   1.00
C389   C     0.49338   0.28892   0.50000   0.00000  Uiso   1.00
C390   C     0.51388   0.29447   0.50000   0.00000  Uiso   1.00
C391   C     0.55488   0.27225   0.50000   0.00000  Uiso   1.00
C392   C     0.53438   0.27780   0.50000   0.00000  Uiso   1.00
C393   C     0.53438   0.28892   0.50000   0.00000  Uiso   1.00
C394   C     0.55488   0.29447   0.50000   0.00000  Uiso   1.00
C395   C     0.59588   0.27225   0.50000   0.00000  Uiso   1.00
C396   C     0.57538   0.27780   0.50000   0.00000  Uiso   1.00
C397   C     0.57538   0.28892   0.50000   0.00000  Uiso   1.00
C398   C     0.59588   0.29447   0.50000   0.00000  Uiso   1.00
C399   C     0.39088   0.30558   0.50000   0.00000  Uiso   1.00
C400   C     0.39088   0.32780   0.50000   0.00000  Uiso   1.00
C401   C     0.43188   0.30558   0.50000   0.00000  Uiso   1.00
C402   C     0.41138   0.31114   0.50000   0.00000  Uiso   1.00
C403   C     0.41138   0.32225   0.50000   0.00000  Uiso   1.00
C404   C     0.43188   0.32780   0.50000   0.00000  Uiso   1.00
C405   C     0.47288   0.30558   0.50000   0.00000  Uiso   1.00
C406   C     0.45238   0.31114   0.50000   0.00000  Uiso   1.00
C407   C     0.45238   0.32225   0.50000   0.00000  Uiso   1.00
C408   C     0.47288   0.32780   0.50000   0.00000  Uiso   1.00
C409   C     0.51388   0.30558   0.50000   0.00000  Uiso   1.00
C410   C     0.49338   0.31114   0.50000   0.00000  Uiso   1.00
C411   C     0.49338   0.32225   0.50000   0.00000  Uiso   1.00
C412   C     0.51388   0.32780   0.50000   0.00000  Uiso   1.00
C413   C     0.55488   0.30558   0.50000   0.00000  Uiso   1.00
C414   C     0.53438   0.31114   0.50000   0.00000  Uiso   1.00
C415   C     0.53438   0.32225   0.50000   0.00000  Uiso   1.00
C416   C     0.55488   0.32780   0.50000   0.00000  Uiso   1.00
C417   C     0.59588   0.30558   0.50000   0.00000  Uiso   1.00
C418   C     0.57538   0.31114   0.50000   0.00000  Uiso   1.00
C419   C     0.57538   0.32225   0.50000   0.00000  Uiso   1.00
C420   C     0.59588   0.32780   0.50000   0.00000  Uiso   1.00
C421   C     0.39088   0.33892   0.50000   0.00000  Uiso   1.00
C422   C     0.39088   0.36114   0.50000   0.00000  Uiso   1.00
C423   C     0.43188   0.33892   0.50000   0.00000  Uiso   1.00
C424   C     0.41138   0.34447   0.50000   0.00000  Uiso   1.00
C425   C     0.41138   0.35558   0.50000   0.00000  Uiso   1.00
C426   C     0.43188   0.36114   0.50000   0.00000  Uiso   1.00
C427   C     0.47288   0.33892   0.50000   0.00000  Uiso   1.00
C428   C     0.45238   0.34447   0.50000   0.00000  Uiso   1.00
C429   C     0.45238   0.35558   0.50000   0.00000  Uiso   1.00
C430   C     0.47288   0.36114   0.50000   0.00000  Uiso   1.00
C431   C     0.51388   0.33892   0.50000   0.00000  Uiso   1.00
C432   C     0.49338   0.34447   0.50000   0.00000  Uiso   1.00
C433   C     0.49338   0.35558   0.50000   0.00000  Uiso   1.00
C434   C     0.51388   0.36114   0.50000   0.00000  Uiso   1.00
C435   C     0.55488   0.33892   0.50000   0.00000  Uiso   1.00
C436   C     0.53438   0.34447   0.50000   0.00000  Uiso   1.00
C437   C     0.53438   0.35558   0.50000   0.00000  Uiso   1.00
C438   C     0.55488   0.36114   0.50000   0.00000  Uiso   1.00
C439   C     0.59588   0.33892   0.50000   0.00000  Uiso   1.00
C440   C     0.57538   0.34447   0.50000   0.00000  Uiso   1.00
C441   C     0.57538   0.35558   0.50000   0.00000  Uiso   1.00
C442   C     0.59588   0.36114   0.50000   0.00000  Uiso   1.00
C443   C     0.39088   0.37225   0.50000   0.00000  Uiso   1.00
C444   C     0.39088   0.39447   0.50000   0.00000  Uiso   1.00
C445   C     0.43188   0.37225   0.50000   0.00000  Uiso   1.00
C446   C     0.41138   0.37780   0.50000   0.00000  Uiso   1.00
C447   C     0.41138   0.38892   0.50000   0.00000  Uiso   1.00
C448   C     0.43188   0.39447   0.50000   0.00000  Uiso   1.00
C449   C     0.47288   0.37225   0.50000   0.00000  Uiso   1.00
C450   C     0.45238   0.37780   0.50000   0.00000  Uiso   1.00
C451   C     0.45238   0.38892   0.50000   0.00000  Uiso   1.00
C452   C     0.47288   0.39447   0.50000   0.00000  Uiso   1.00
C453   C     0.51388   0.37225   0.50000   0.00000  Uiso   1.00
C454   C     0.49338   0.37780   0.50000   0.00000  Uiso   1.00
C455   C     0.49338   0.38892   0.50000   0.00000  Uiso   1.00
C456   C     0.51388   0.39447   0.50000   0.00000  Uiso   1.00
C457   C     0.55488   0.37225   0.50000   0.00000  Uiso   1.00
C458   C     0.53438   0.37780   0.50000   0.00000  Uiso   1.00
C459   C     0.53438   0.38892   0.50000   0.00000  Uiso   1.00
C460   C     0.55488   0.39447   0.50000   0.00000  Uiso   1.00
C461   C     0.59588   0.37225   0.50000   0.00000  Uiso   1.00
C462   C     0.57538   0.37780   0.50000   0.00000  Uiso   1.00
C463   C     0.57538   0.38892   0.50000   0.00000  Uiso   1.00
C464   C     0.59588   0.39447   0.50000   0.00000  Uiso   1.00
C465   C     0.39088   0.40558   0.50000   0.00000  Uiso   1.00
C466   C     0.39088   0.42780   0.50000   0.00000  Uiso   1.00
C467   C     0.43188   0.40558   0.50000   0.00000  Uiso   1.00
C468   C     0.41138   0.41114   0.50000   0.00000  Uiso   1.00
C469   C     0.41138   0.42225   0.50000   0.00000  Uiso   1.00
C470   C     0.43188   0.42780   0.50000   0.00000  Uiso   1.00
C471   C     0.47288   0.40558   0.50000   0.00000  Uiso   1.00
C472   C     0.45238   0.41114   0.50000   0.00000  Uiso   1.00
C473   C     0.45238   0.42225   0.50000   0.00000  Uiso   1.00
C474   C     0.47288   0.42780   0.50000   0.00000  Uiso   1.00
C475   C     0.51388   0.40558   0.50000   0.00000  Uiso   1.00
C476   C     0.49338   0.41114   0.50000   0.00000  Uiso   1.00
C477   C     0.49338   0.42225   0.50000   0.00000  Uiso   1.00
C478   C     0.51388   0.42780   0.50000   0.00000  Uiso   1.00
C479   C     0.55488   0.40558   0.50000   0.00000  Uiso   1.00
C480   C     0.53438   0.41114   0.50000   0.00000  Uiso   1.00
C481   C     0.53438   0.42225   0.50000   0.00000  Uiso   1.00
C482   C     0.55488   0.42780   0.50000   0.00000  Uiso   1.00
C483   C     0.59588   0.40558   0.50000   0.00000  Uiso   1.00
C484   C     0.57538   0.41114   0.50000   0.00000  Uiso   1.00
C485   C     0.57538   0.42225   0.50000   0.00000  Uiso   1.00
C486   C     0.59588   0.42780   0.50000   0.00000  Uiso   1.00
C487   C     0.39088   0.43892   0.50000   0.00000  Uiso   1.00
C488   C     0.39088   0.46114   0.50000   0.00000  Uiso   1.00
C489   C     0.43188   0.43892   0.50000   0.00000  Uiso   1.00
C490   C     0.41138   0.44447   0.50000   0.00000  Uiso   1.00
C491   C     0.41138   0.45558   0.50000   0.00000  Uiso   1.00
C492   C     0.43188   0.46114   0.50000   0.00000  Uiso   1.00
C493   C     0.47288   0.43892   0.50000   0.00000  Uiso   1.00
C494   C     0.45238   0.44447   0.50000   0.00000  Uiso   1.00
C495   C     0.45238   0.45558   0.50000   0.00000  Uiso   1.00
C496   C     0.47288   0.46114   0.50000   0.00000  Uiso   1.00
C497   C     0.51388   0.43892   0.50000   0.00000  Uiso   1.00
C498   C     0.49338   0.44447   0.50000   0.00000  Uiso   1.00
C499   C     0.49338   0.45558   0.50000   0.00000  Uiso   1.00
C500   C     0.51388   0.46114   0.50000   0.00000  Uiso   1.00
C501   C     0.55488   0.43892   0.50000   0.00000  Uiso   1.00
C502   C     0.53438   0.44447   0.50000   0.00000  Uiso   1.00
C503   C     0.53438   0.45558   0.50000   0.00000  Uiso   1.00
C504   C     0.55488   0.46114   0.50000   0.00000  Uiso   1.00
C505   C     0.59588   0.43892   0.50000   0.00000  Uiso   1.00
C506   C     0.57538   0.44447   0.50000   0.00000  Uiso   1.00
C507   C     0.57538   0.45558   0.50000   0.00000  Uiso   1.00
C508   C     0.59588   0.46114   0.50000   0.00000  Uiso   1.00
C509   C     0.39088   0.47225   0.50000   0.00000  Uiso   1.00
C510   C     0.39088   0.49447   0.50000   0.00000  Uiso   1.00
C511   C     0.43188   0.47225   0.50000   0.00000  Uiso   1.00
C512   C     0.41138   0.47780   0.50000   0.00000  Uiso   1.00
C513   C     0.41138   0.48892   0.50000   0.00000  Uiso   1.00
C514   C     0.43188   0.49447   0.50000   0.00000  Uiso   1.00
C515   C     0.47288   0.47225   0.50000   0.00000  Uiso   1.00
C516   C     0.45238   0.47780   0.50000   0.00000  Uiso   1.00
C517   C     0.45238   0.48892   0.50000   0.00000  Uiso   1.00
C518   C     0.47288   0.49447   0.50000   0.00000  Uiso   1.00
C519   C     0.51388   0.47225   0.50000   0.00000  Uiso   1.00
C520   C     0.49338   0.47780   0.50000   0.00000  Uiso   1.00
C521   C     0.49338   0.48892   0.50000   0.00000  Uiso   1.00
C522   C     0.51388   0.49447   0.50000   0.00000  Uiso   1.00
C523   C     0.55488   0.47225   0.50000   0.00000  Uiso   1.00
C524   C     0.53438   0.47780   0.50000   0.00000  Uiso   1.00
C525   C     0.53438   0.48892   0.50000   0.00000  Uiso   1.00
C526   C     0.55488   0.49447   0.50000   0.00000  Uiso   1.00
C527   C     0.59588   0.47225   0.50000   0.00000  Uiso   1.00
C528   C     0.57538   0.47780   0.50000   0.00000  Uiso   1.00
C529   C     0.57538   0.48892   0.50000   0.00000  Uiso   1.00
C530   C     0.59588   0.49447   0.50000   0.00000  Uiso   1.00
C531   C     0.39088   0.50558   0.50000   0.00000  Uiso   1.00
C532   C     0.39088   0.52780   0.50000   0.00000  Uiso   1.00
C533   C     0.43188   0.50558   0.50000   0.00000  Uiso   1.00
C534   C     0.41138   0.51114   0.50000   0.00000  Uiso   1.00
C535   C     0.41138   0.52225   0.50000   0.00000  Uiso   1.00
C536   C     0.43188   0.52780   0.50000   0.00000  Uiso   1.00
C537   C     0.47288   0.50558   0.50000   0.00000  Uiso   1.00
C538   C     0.45238   0.51114   0.50000   0.00000  Uiso   1.00
C539   C     0.45238   0.52225   0.50000   0.00000  Uiso   1.00
C540   C     0.47288   0.52780   0.50000   0.00000  Uiso   1.00
C541   C     0.51388   0.50558   0.50000   0.00000  Uiso   1.00
C542   C     0.49338   0.51114   0.50000   0.00000  Uiso   1.00
C543   C     0.49338   0.52225   0.50000   0.00000  Uiso   1.00
C544   C     0.51388   0.52780   0.50000   0.00000  Uiso   1.00
C545   C     0.55488   0.50558   0.50000   0.00000  Uiso   1.00
C546   C     0.53438   0.51114   0.50000   0.00000  Uiso   1.00
C547   C     0.53438   0.52225   0.50000   0.00000  Uiso   1.00
C548   C     0.55488   0.52780   0.50000   0.00000  Uiso   1.00
C549   C     0.59588   0.50558   0.50000   0.00000  Uiso   1.00
C550   C     0.57538   0.51114   0.50000   0.00000  Uiso   1.00
C551   C     0.57538   0.52225   0.50000   0.00000  Uiso   1.00
C552   C     0.59588   0.52780   0.50000   0.00000  Uiso   1.00
C553   C     0.39088   0.53892   0.50000   0.00000  Uiso   1.00
C554   C     0.39088   0.56114   0.50000   0.00000  Uiso   1.00
C555   C     0.43188   0.53892   0.50000   0.00000  Uiso   1.00
C556   C     0.41138   0.54447   0.50000   0.00000  Uiso   1.00
C557   C     0.41138   0.55558   0.50000   0.00000  Uiso   1.00
C558   C     0.43188   0.56114   0.50000   0.00000  Uiso   1.00
C559   C     0.47288   0.53892   0.50000   0.00000  Uiso   1.00
C560   C     0.45238   0.54447   0.50000   0.00000  Uiso   1.00
C561   C     0.45238   0.55558   0.50000   0.00000  Uiso   1.00
C562   C     0.47288   0.56114   0.50000   0.00000  Uiso   1.00
C563   C     0.51388   0.53892   0.50000   0.00000  Uiso   1.00
C564   C     0.49338   0.54447   0.50000   0.00000  Uiso   1.00
C565   C     0.49338   0.55558   0.50000   0.00000  Uiso   1.00
C566   C     0.51388   0.56114   0.50000   0.00000  Uiso   1.00
C567   C     0.55488   0.53892   0.50000   0.00000  Uiso   1.00
C568   C     0.53438   0.54447   0.50000   0.00000  Uiso   1.00
C569   C     0.53438   0.55558   0.50000   0.00000  Uiso   1.00
C570   C     0.55488   0.56114   0.50000   0.00000  Uiso   1.00
C571   C     0.59588   0.53892   0.50000   0.00000  Uiso   1.00
C572   C     0.57538   0.54447   0.50000   0.00000  Uiso   1.00
C573   C     0.57538   0.55558   0.50000   0.00000  Uiso   1.00
C574   C     0.59588   0.56114   0.50000   0.00000  Uiso   1.00
C575   C     0.39088   0.57225   0.50000   0.00000  Uiso   1.00
C576   C     0.39088   0.59447   0.50000   0.00000  Uiso   1.00
C577   C     0.43188   0.57225   0.50000   0.00000  Uiso   1.00
C578   C     0.41138   0.57780   0.50000   0.00000  Uiso   1.00
C579   C     0.41138   0.58892   0.50000   0.00000  Uiso   1.00
C580   C     0.43188   0.59447   0.50000   0.00000  Uiso   1.00
C581   C     0.47288   0.57225   0.50000   0.00000  Uiso   1.00
C582   C     0.45238   0.57780   0.50000   0.00000  Uiso   1.00
C583   C     0.45238   0.58892   0.50000   0.00000  Uiso   1.00
C584   C     0.47288   0.59447   0.50000   0.00000  Uiso   1.00
C585   C     0.51388   0.57225   0.50000   0.00000  Uiso   1.00
C586   C     0.49338   0.57780   0.50000   0.00000  Uiso   1.00
C587   C     0.49338   0.58892   0.50000   0.00000  Uiso   1.00
C588   C     0.51388   0.59447   0.50000   0.00000  Uiso   1.00
C589   C     0.55488   0.57225   0.50000   0.00000  Uiso   1.00
C590   C     0.53438   0.57780   0.50000   0.00000  Uiso   1.00
C591   C     0.53438   0.58892   0.50000   0.00000  Uiso   1.00
C592   C     0.55488   0.59447   0.50000   0.00000  Uiso   1.00
C593   C     0.59588   0.57225   0.50000   0.00000  Uiso   1.00
C594   C     0.57538   0.57780   0.50000   0.00000  Uiso   1.00
C595   C     0.57538   0.58892   0.50000   0.00000  Uiso   1.00
C596   C     0.59588   0.59447   0.50000   0.00000  Uiso   1.00
C597   C     0.39088   0.60558   0.50000   0.00000  Uiso   1.00
C598   C     0.39088   0.62780   0.50000   0.00000  Uiso   1.00
C599   C     0.43188   0.60558   0.50000   0.00000  Uiso   1.00
C600   C     0.41138   0.61114   0.50000   0.00000  Uiso   1.00
C601   C     0.41138   0.62225   0.50000   0.00000  Uiso   1.00
C602   C     0.43188   0.62780   0.50000   0.00000  Uiso   1.00
C603   C     0.47288   0.60558   0.50000   0.00000  Uiso   1.00
C604   C     0.45238   0.61114   0.50000   0.00000  Uiso   1.00
C605   C     0.45238   0.62225   0.50000   0.00000  Uiso   1.00
C606   C     0.47288   0.62780   0.50000   0.00000  Uiso   1.00
C607   C     0.51388   0.60558   0.50000   0.00000  Uiso   1.00
C608   C     0.49338   0.61114   0.50000   0.00000  Uiso   1.00
C609   C     0.49338   0.62225   0.50000   0.00000  Uiso   1.00
C610   C     0.51388   0.62780   0.50000   0.00000  Uiso   1.00
C611   C     0.55488   0.60558   0.50000   0.00000  Uiso   1.00
C612   C     0.53438   0.61114   0.50000   0.00000  Uiso   1.00
C613   C     0.53438   0.62225   0.50000   0.00000  Uiso   1.00
C614   C     0.55488   0.62780   0.50000   0.00000  Uiso   1.00
C615   C     0.59588   0.60558   0.50000   0.00000  Uiso   1.00
C616   C     0.57538   0.61114   0.50000   0.00000  Uiso   1.00
C617   C     0.57538   0.62225   0.50000   0.00000  Uiso   1.00
C618   C     0.59588   0.62780   0.50000   0.00000  Uiso   1.00
C619   C     0.39088   0.63892   0.50000   0.00000  Uiso   1.00
C620   C     0.39088   0.66114   0.50000   0.00000  Uiso   1.00
C621   C     0.43188   0.63892   0.50000   0.00000  Uiso   1.00
C622   C     0.41138   0.64447   0.50000   0.00000  Uiso   1.00
C623   C     0.41138   0.65558   0.50000   0.00000  Uiso   1.00
C624   C     0.43188   0.66114   0.50000   0.00000  Uiso   1.00
C625   C     0.47288   0.63892   0.50000   0.00000  Uiso   1.00
C626   C     0.45238   0.64447   0.50000   0.00000  Uiso   1.00
C627   C     0.45238   0.65558   0.50000   0.00000  Uiso   1.00
C628   C     0.47288   0.66114   0.50000   0.00000  Uiso   1.00
C629   C     0.51388   0.63892   0.50000   0.00000  Uiso   1.00
C630   C     0.49338   0.64447   0.50000   0.00000  Uiso   1.00
C631   C     0.49338   0.65558   0.50000   0.00000  Uiso   1.00
C632   C     0.51388   0.66114   0.50000   0.00000  Uiso   1.00
C633   C     0.55488   0.63892   0.50000   0.00000  Uiso   1.00
C634   C     0.53438   0.64447   0.50000   0.00000  Uiso   1.00
C635   C     0.53438   0.65558   0.50000   0.00000  Uiso   1.00
C636   C     0.55488   0.66114   0.50000   0.00000  Uiso   1.00
C637   C     0.59588   0.63892   0.50000   0.00000  Uiso   1.00
C638   C     0.57538   0.64447   0.50000   0.00000  Uiso   1.00
C639   C     0.57538   0.65558   0.50000   0.00000  Uiso   1.00
C640   C     0.59588   0.66114   0.50000   0.00000  Uiso   1.00
C641   C     0.39088   0.67225   0.50000   0.00000  Uiso   1.00
C642   C     0.39088   0.69447   0.50000   0.00000  Uiso   1.00
C643   C     0.43188   0.67225   0.50000   0.00000  Uiso   1.00
C644   C     0.41138   0.67780   0.50000   0.00000  Uiso   1.00
C645   C     0.41138   0.68892   0.50000   0.00000  Uiso   1.00
C646   C     0.43188   0.69447   0.50000   0.00000  Uiso   1.00
C647   C     0.47288   0.67225   0.50000   0.00000  Uiso   1.00
C648   C     0.45238   0.67780   0.50000   0.00000  Uiso   1.00
C649   C     0.45238   0.68892   0.50000   0.00000  Uiso   1.00
C650   C     0.47288   0.69447   0.50000   0.00000  Uiso   1.00
C651   C     0.51388   0.67225   0.50000   0.00000  Uiso   1.00
C652   C     0.49338   0.67780   0.50000   0.00000  Uiso   1.00
C653   C     0.49338   0.68892   0.50000   0.00000  Uiso   1.00
C654   C     0.51388   0.69447   0.50000   0.00000  Uiso   1.00
C655   C     0.55488   0.67225   0.50000   0.00000  Uiso   1.00
C656   C     0.53438   0.67780   0.50000   0.00000  Uiso   1.00
C657   C     0.53438   0.68892   0.50000   0.00000  Uiso   1.00
C658   C     0.55488   0.69447   0.50000   0.00000  Uiso   1.00
C659   C     0.59588   0.67225   0.50000   0.00000  Uiso   1.00
C660   C     0.57538   0.67780   0.50000   0.00000  Uiso   1.00
C661   C     0.57538   0.68892   0.50000   0.00000  Uiso   1.00
C662   C     0.59588   0.69447   0.50000   0.00000  Uiso   1.00
C663   C     0.39088   0.70558   0.50000   0.00000  Uiso   1.00
C664   C     0.39088   0.72780   0.50000   0.00000  Uiso   1.00
C665   C     0.43188   0.70558   0.50000   0.00000  Uiso   1.00
C666   C     0.41138   0.71114   0.50000   0.00000  Uiso   1.00
C667   C     0.41138   0.72225   0.50000   0.00000  Uiso   1.00
C668   C     0.43188   0.72780   0.50000   0.00000  Uiso   1.00
C669   C     0.47288   0.70558   0.50000   0.00000  Uiso   1.00
C670   C     0.45238   0.71114   0.50000   0.00000  Uiso   1.00
C671   C     0.45238   0.72225   0.50000   0.00000  Uiso   1.00
C672   C     0.47288   0.72780   0.50000   0.00000  Uiso   1.00
C673   C     0.51388   0.70558   0.50000   0.00000  Uiso   1.00
C674   C     0.49338   0.71114   0.50000   0.00000  Uiso   1.00
C675   C     0.49338   0.72225   0.50000   0.00000  Uiso   1.00
C676   C     0.51388   0.72780   0.50000   0.00000  Uiso   1.00
C677   C     0.55488   0.70558   0.50000   0.00000  Uiso   1.00
C678   C     0.53438   0.71114   0.50000   0.00000  Uiso   1.00
C679   C     0.53438   0.72225   0.50000   0.00000  Uiso   1.00
C680   C     0.55488   0.72780   0.50000   0.00000  Uiso   1.00
C681   C     0.59588   0.70558   0.50000   0.00000  Uiso   1.00
C682   C     0.57538   0.71114   0.50000   0.00000  Uiso   1.00
C683   C     0.57538   0.72225   0.50000   0.00000  Uiso   1.00
C684   C     0.59588   0.72780   0.50000   0.00000  Uiso   1.00
C685   C     0.39088   0.73892   0.50000   0.00000  Uiso   1.00
C686   C     0.39088   0.76114   0.50000   0.00000  Uiso   1.00
C687   C     0.43188   0.73892   0.50000   0.00000  Uiso   1.00
C688   C     0.41138   0.74447   0.50000   0.00000  Uiso   1.00
C689   C     0.41138   0.75558   0.50000   0.00000  Uiso   1.00
C690   C     0.43188   0.76114   0.50000   0.00000  Uiso   1.00
C691   C     0.47288   0.73892   0.50000   0.00000  Uiso   1.00
C692   C     0.45238   0.74447   0.50000   0.00000  Uiso   1.00
C693   C     0.45238   0.75558   0.50000   0.00000  Uiso   1.00
C694   C     0.47288   0.76114   0.50000   0.00000  Uiso   1.00
C695   C     0.51388   0.73892   0.50000   0.00000  Uiso   1.00
C696   C     0.49338   0.74447   0.50000   0.00000  Uiso   1.00
C697   C     0.49338   0.75558   0.50000   0.00000  Uiso   1.00
C698   C     0.51388   0.76114   0.50000   0.00000  Uiso   1.00
C699   C     0.55488   0.73892   0.50000   0.00000  Uiso   1.00
C700   C     0.53438   0.74447   0.50000   0.00000  Uiso   1.00
C701   C     0.53438   0.75558   0.50000   0.00000  Uiso   1.00
C702   C     0.55488   0.76114   0.50000   0.00000  Uiso   1.00
C703   C     0.59588   0.73892   0.50000   0.00000  Uiso   1.00
C704   C     0.57538   0.74447   0.50000   0.00000  Uiso   1.00
C705   C     0.57538   0.75558   0.50000   0.00000  Uiso   1.00
C706   C     0.59588   0.76114   0.50000   0.00000  Uiso   1.00
C707   C     0.39088   0.77225   0.50000   0.00000  Uiso   1.00
C708   C     0.39088   0.79447   0.50000   0.00000  Uiso   1.00
C709   C     0.43188   0.77225   0.50000   0.00000  Uiso   1.00
C710   C     0.41138   0.77780   0.50000   0.00000  Uiso   1.00
C711   C     0.41138   0.78892   0.50000   0.00000  Uiso   1.00
C712   C     0.43188   0.79447   0.50000   0.00000  Uiso   1.00
C713   C     0.47288   0.77225   0.50000   0.00000  Uiso   1.00
C714   C     0.45238   0.77780   0.50000   0.00000  Uiso   1.00
C715   C     0.45238   0.78892   0.50000   0.00000  Uiso   1.00
C716   C     0.47288   0.79447   0.50000   0.00000  Uiso   1.00
C717   C     0.51388   0.77225   0.50000   0.00000  Uiso   1.00
C718   C     0.49338   0.77780   0.50000   0.00000  Uiso   1.00
C719   C     0.49338   0.78892   0.50000   0.00000  Uiso   1.00
C720   C     0.51388   0.79447   0.50000   0.00000  Uiso   1.00
C721   C     0.55488   0.77225   0.50000   0.00000  Uiso   1.00
C722   C     0.53438   0.77780   0.50000   0.00000  Uiso   1.00
C723   C     0.53438   0.78892   0.50000   0.00000  Uiso   1.00
C724   C     0.55488   0.79447   0.50000   0.00000  Uiso   1.00
C725   C     0.59588   0.77225   0.50000   0.00000  Uiso   1.00
C726   C     0.57538   0.77780   0.50000   0.00000  Uiso   1.00
C727   C     0.57538   0.78892   0.50000   0.00000  Uiso   1.00
C728   C     0.59588   0.79447   0.50000   0.00000  Uiso   1.00
C729   C     0.39088   0.80558   0.50000   0.00000  Uiso   1.00
C730   C     0.39088   0.82780   0.50000   0.00000  Uiso   1.00
C731   C     0.43188   0.80558   0.50000   0.00000  Uiso   1.00
C732   C     0.41138   0.81114   0.50000   0.00000  Uiso   1.00
C733   C     0.41138   0.82225   0.50000   0.00000  Uiso   1.00
C734   C     0.43188   0.82780   0.50000   0.00000  Uiso   1.00
C735   C     0.47288   0.80558   0.50000   0.00000  Uiso   1.00
C736   C     0.45238   0.81114   0.50000   0.00000  Uiso   1.00
C737   C     0.45238   0.82225   0.50000   0.00000  Uiso   1.00
C738   C     0.47288   0.82780   0.50000   0.00000  Uiso   1.00
C739   C     0.51388   0.80558   0.50000   0.00000  Uiso   1.00
C740   C     0.49338   0.81114   0.50000   0.00000  Uiso   1.00
C741   C     0.49338   0.82225   0.50000   0.00000  Uiso   1.00
C742   C     0.51388   0.82780   0.50000   0.00000  Uiso   1.00
C743   C     0.55488   0.80558   0.50000   0.00000  Uiso   1.00
C744   C     0.53438   0.81114   0.50000   0.00000  Uiso   1.00
C745   C     0.53438   0.82225   0.50000   0.00000  Uiso   1.00
C746   C     0.55488   0.82780   0.50000   0.00000  Uiso   1.00
C747   C     0.59588   0.80558   0.50000   0.00000  Uiso   1.00
C748   C     0.57538   0.81114   0.50000   0.00000  Uiso   1.00
C749   C     0.57538   0.82225   0.50000   0.00000  Uiso   1.00
C750   C     0.59588   0.82780   0.50000   0.00000  Uiso   1.00
N751   N     0.22688   0.83892   0.50000   0.00000  Uiso   1.00
N752   N     0.20638   0.84447   0.50000   0.00000  Uiso   1.00
N753   N     0.20638   0.85558   0.50000   0.00000  Uiso   1.00
N754   N     0.22688   0.86114   0.50000   0.00000  Uiso   1.00
N755   N     0.26788   0.83892   0.50000   0.00000  Uiso   1.00
N756   N     0.24738   0.84447   0.50000   0.00000  Uiso   1.00
N757   N     0.24738   0.85558   0.50000   0.00000  Uiso   1.00
N758   N     0.26788   0.86114   0.50000   0.00000  Uiso   1.00
N759   N     0.30888   0.83892   0.50000   0.00000  Uiso   1.00
N760   N     0.28838   0.84447   0.50000   0.00000  Uiso   1.00
N761   N     0.28838   0.85558   0.50000   0.00000  Uiso   1.00
N762   N     0.30888   0.86114   0.50000   0.00000  Uiso   1.00
N763   N     0.34988   0.83892   0.50000   0.00000  Uiso   1.00
N764   N     0.32938   0.84447   0.50000   0.00000  Uiso   1.00
N765   N     0.32938   0.85558   0.50000   0.00000  Uiso   1.00
N766   N     0.34988   0.86114   0.50000   0.00000  Uiso   1.00
N767   N     0.39088   0.83892   0.50000   0.00000  Uiso   1.00
N768   N     0.37038   0.84447   0.50000   0.00000  Uiso   1.00
N769   N     0.37038   0.85558   0.50000   0.00000  Uiso   1.00
N770   N     0.39088   0.86114   0.50000   0.00000  Uiso   1.00
N771   N     0.43188   0.83892   0.50000   0.00000  Uiso   1.00
N772   N     0.41138   0.84447   0.50000   0.00000  Uiso   1.00
N773   N     0.41138   0.85558   0.50000   0.00000  Uiso   1.00
N774   N     0.43188   0.86114   0.50000   0.00000  Uiso   1.00
N775   N     0.47288   0.83892   0.50000   0.00000  Uiso   1.00
N776   N     0.45238   0.84447   0.50000   0.00000  Uiso   1.00
N777   N     0.45238   0.85558   0.50000   0.00000  Uiso   1.00
N778   N     0.47288   0.86114   0.50000   0.00000  Uiso   1.00
N779   N     0.51388   0.83892   0.50000   0.00000  Uiso   1.00
N780   N     0.49338   0.84447   0.50000   0.00000  Uiso   1.00
N781   N     0.49338   0.85558   0.50000   0.00000  Uiso   1.00
N782   N     0.51388   0.86114   0.50000   0.00000  Uiso   1.00
N783   N     0.55488   0.83892   0.50000   0.00000  Uiso   1.00
N784   N     0.53438   0.84447   0.50000   0.00000  Uiso   1.00
N785   N     0.53438   0.85558   0.50000   0.00000  Uiso   1.00
N786   N     0.55488   0.86114   0.50000   0.00000  Uiso   1.00
N787   N     0.59588   0.83892   0.50000   0.00000  Uiso   1.00
N788   N     0.57538   0.84447   0.50000   0.00000  Uiso   1.00
N789   N     0.57538   0.85558   0.50000   0.00000  Uiso   1.00
N790   N     0.59588   0.86114   0.50000   0.00000  Uiso   1.00
N791   N     0.63688   0.83892   0.50000   0.00000  Uiso   1.00
N792   N     0.61638   0.84447   0.50000   0.00000  Uiso   1.00
N793   N     0.61638   0.85558   0.50000   0.00000  Uiso   1.00
N794   N     0.63688   0.86114   0.50000   0.00000  Uiso   1.00
N795   N     0.67788   0.83892   0.50000   0.00000  Uiso   1.00
N796   N     0.65738   0.84447   0.50000   0.00000  Uiso   1.00
N797   N     0.65738   0.85558   0.50000   0.00000  Uiso   1.00
N798   N     0.67788   0.86114   0.50000   0.00000  Uiso   1.00
N799   N     0.71888   0.83892   0.50000   0.00000  Uiso   1.00
N800   N     0.69838   0.84447   0.50000   0.00000  Uiso   1.00
N801   N     0.69838   0.85558   0.50000   0.00000  Uiso   1.00
N802   N     0.71888   0.86114   0.50000   0.00000  Uiso   1.00
N803   N     0.75988   0.83892   0.50000   0.00000  Uiso   1.00
N804   N     0.73938   0.84447   0.50000   0.00000  Uiso   1.00
N805   N     0.73938   0.85558   0.50000   0.00000  Uiso   1.00
N806   N     0.75988   0.86114   0.50000   0.00000  Uiso   1.00
N807   N     0.78038   0.84447   0.50000   0.00000  Uiso   1.00
N808   N     0.78038   0.85558   0.50000   0.00000  Uiso   1.00
H809   H     0.18993   0.84001   0.50000   0.00000  Uiso   1.00
H810   H     0.18993   0.86004   0.50000   0.00000  Uiso   1.00
H811   H     0.79684   0.84001   0.50000   0.00000  Uiso   1.00
H812   H     0.79684   0.86004   0.50000   0.00000  Uiso   1.00
N813   N     0.22688   0.87225   0.50000   0.00000  Uiso   1.00
N814   N     0.20638   0.87780   0.50000   0.00000  Uiso   1.00
N815   N     0.20638   0.88892   0.50000   0.00000  Uiso   1.00
N816   N     0.22688   0.89447   0.50000   0.00000  Uiso   1.00
N817   N     0.26788   0.87225   0.50000   0.00000  Uiso   1.00
N818   N     0.24738   0.87780   0.50000   0.00000  Uiso   1.00
N819   N     0.24738   0.88892   0.50000   0.00000  Uiso   1.00
N820   N     0.26788   0.89447   0.50000   0.00000  Uiso   1.00
N821   N     0.30888   0.87225   0.50000   0.00000  Uiso   1.00
N822   N     0.28838   0.87780   0.50000   0.00000  Uiso   1.00
N823   N     0.28838   0.88892   0.50000   0.00000  Uiso   1.00
N824   N     0.30888   0.89447   0.50000   0.00000  Uiso   1.00
N825   N     0.34988   0.87225   0.50000   0.00000  Uiso   1.00
N826   N     0.32938   0.87780   0.50000   0.00000  Uiso   1.00
N827   N     0.32938   0.88892   0.50000   0.00000  Uiso   1.00
N828   N     0.34988   0.89447   0.50000   0.00000  Uiso   1.00
N829   N     0.39088   0.87225   0.50000   0.00000  Uiso   1.00
N830   N     0.37038   0.87780   0.50000   0.00000  Uiso   1.00
N831   N     0.37038   0.88892   0.50000   0.00000  Uiso   1.00
N832   N     0.39088   0.89447   0.50000   0.00000  Uiso   1.00
N833   N     0.43188   0.87225   0.50000   0.00000  Uiso   1.00
N834   N     0.41138   0.87780   0.50000   0.00000  Uiso   1.00
N835   N     0.41138   0.88892   0.50000   0.00000  Uiso   1.00
N836   N     0.43188   0.89447   0.50000   0.00000  Uiso   1.00
N837   N     0.47288   0.87225   0.50000   0.00000  Uiso   1.00
N838   N     0.45238   0.87780   0.50000   0.00000  Uiso   1.00
N839   N     0.45238   0.88892   0.50000   0.00000  Uiso   1.00
N840   N     0.47288   0.89447   0.50000   0.00000  Uiso   1.00
N841   N     0.51388   0.87225   0.50000   0.00000  Uiso   1.00
N842   N     0.49338   0.87780   0.50000   0.00000  Uiso   1.00
N843   N     0.49338   0.88892   0.50000   0.00000  Uiso   1.00
N844   N     0.51388   0.89447   0.50000   0.00000  Uiso   1.00
N845   N     0.55488   0.87225   0.50000   0.00000  Uiso   1.00
N846   N     0.53438   0.87780   0.50000   0.00000  Uiso   1.00
N847   N     0.53438   0.88892   0.50000   0.00000  Uiso   1.00
N848   N     0.55488   0.89447   0.50000   0.00000  Uiso   1.00
N849   N     0.59588   0.87225   0.50000   0.00000  Uiso   1.00
N850   N     0.57538   0.87780   0.50000   0.00000  Uiso   1.00
N851   N     0.57538   0.88892   0.50000   0.00000  Uiso   1.00
N852   N     0.59588   0.89447   0.50000   0.00000  Uiso   1.00
N853   N     0.63688   0.87225   0.50000   0.00000  Uiso   1.00
N854   N     0.61638   0.87780   0.50000   0.00000  Uiso   1.00
N855   N     0.61638   0.88892   0.50000   0.00000  Uiso   1.00
N856   N     0.63688   0.89447   0.50000   0.00000  Uiso   1.00
N857   N     0.67788   0.87225   0.50000   0.00000  Uiso   1.00
N858   N     0.65738   0.87780   0.50000   0.00000  Uiso   1.00
N859   N     0.65738   0.88892   0.50000   0.00000  Uiso   1.00
N860   N     0.67788   0.89447   0.50000   0.00000  Uiso   1.00
N861   N     0.71888   0.87225   0.50000   0.00000  Uiso   1.00
N862   N     0.69838   0.87780   0.50000   0.00000  Uiso   1.00
N863   N     0.69838   0.88892   0.50000   0.00000  Uiso   1.00
N864   N     0.71888   0.89447   0.50000   0.00000  Uiso   1.00
N865   N     0.75988   0.87225   0.50000   0.00000  Uiso   1.00
N866   N     0.73938   0.87780   0.50000   0.00000  Uiso   1.00
N867   N     0.73938   0.88892   0.50000   0.00000  Uiso   1.00
N868   N     0.75988   0.89447   0.50000   0.00000  Uiso   1.00
N869   N     0.78038   0.87780   0.50000   0.00000  Uiso   1.00
N870   N     0.78038   0.88892   0.50000   0.00000  Uiso   1.00
H871   H     0.18993   0.87335   0.50000   0.00000  Uiso   1.00
H872   H     0.18993   0.89337   0.50000   0.00000  Uiso   1.00
H873   H     0.79684   0.87335   0.50000   0.00000  Uiso   1.00
H874   H     0.79684   0.89337   0.50000   0.00000  Uiso   1.00
N875   N     0.22688   0.90558   0.50000   0.00000  Uiso   1.00
N876   N     0.20638   0.91114   0.50000   0.00000  Uiso   1.00
N877   N     0.20638   0.92225   0.50000   0.00000  Uiso   1.00
N878   N     0.22688   0.92780   0.50000   0.00000  Uiso   1.00
N879   N     0.26788   0.90558   0.50000   0.00000  Uiso   1.00
N880   N     0.24738   0.91114   0.50000   0.00000  Uiso   1.00
N881   N     0.24738   0.92225   0.50000   0.00000  Uiso   1.00
N882   N     0.26788   0.92780   0.50000   0.00000  Uiso   1.00
N883   N     0.30888   0.90558   0.50000   0.00000  Uiso   1.00
N884   N     0.28838   0.91114   0.50000   0.00000  Uiso   1.00
N885   N     0.28838   0.92225   0.50000   0.00000  Uiso   1.00
N886   N     0.30888   0.92780   0.50000   0.00000  Uiso   1.00
N887   N     0.34988   0.90558   0.50000   0.00000  Uiso   1.00
N888   N     0.32938   0.91114   0.50000   0.00000  Uiso   1.00
N889   N     0.32938   0.92225   0.50000   0.00000  Uiso   1.00
N890   N     0.34988   0.92780   0.50000   0.00000  Uiso   1.00
N891   N     0.39088   0.90558   0.50000   0.00000  Uiso   1.00
N892   N     0.37038   0.91114   0.50000   0.00000  Uiso   1.00
N893   N     0.37038   0.92225   0.50000   0.00000  Uiso   1.00
N894   N     0.39088   0.92780   0.50000   0.00000  Uiso   1.00
N895   N     0.43188   0.90558   0.50000   0.00000  Uiso   1.00
N896   N     0.41138   0.91114   0.50000   0.00000  Uiso   1.00
N897   N     0.41138   0.92225   0.50000   0.00000  Uiso   1.00
N898   N     0.43188   0.92780   0.50000   0.00000  Uiso   1.00
N899   N     0.47288   0.90558   0.50000   0.00000  Uiso   1.00
N900   N     0.45238   0.91114   0.50000   0.00000  Uiso   1.00
N901   N     0.45238   0.92225   0.50000   0.00000  Uiso   1.00
N902   N     0.47288   0.92780   0.50000   0.00000  Uiso   1.00
N903   N     0.51388   0.90558   0.50000   0.00000  Uiso   1.00
N904   N     0.49338   0.91114   0.50000   0.00000  Uiso   1.00
N905   N     0.49338   0.92225   0.50000   0.00000  Uiso   1.00
N906   N     0.51388   0.92780   0.50000   0.00000  Uiso   1.00
N907   N     0.55488   0.90558   0.50000   0.00000  Uiso   1.00
N908   N     0.53438   0.91114   0.50000   0.00000  Uiso   1.00
N909   N     0.53438   0.92225   0.50000   0.00000  Uiso   1.00
N910   N     0.55488   0.92780   0.50000   0.00000  Uiso   1.00
N911   N     0.59588   0.90558   0.50000   0.00000  Uiso   1.00
N912   N     0.57538   0.91114   0.50000   0.00000  Uiso   1.00
N913   N     0.57538   0.92225   0.50000   0.00000  Uiso   1.00
N914   N     0.59588   0.92780   0.50000   0.00000  Uiso   1.00
N915   N     0.63688   0.90558   0.50000   0.00000  Uiso   1.00
N916   N     0.61638   0.91114   0.50000   0.00000  Uiso   1.00
N917   N     0.61638   0.92225   0.50000   0.00000  Uiso   1.00
N918   N     0.63688   0.92780   0.50000   0.00000  Uiso   1.00
N919   N     0.67788   0.90558   0.50000   0.00000  Uiso   1.00
N920   N     0.65738   0.91114   0.50000   0.00000  Uiso   1.00
N921   N     0.65738   0.92225   0.50000   0.00000  Uiso   1.00
N922   N     0.67788   0.92780   0.50000   0.00000  Uiso   1.00
N923   N     0.71888   0.90558   0.50000   0.00000  Uiso   1.00
N924   N     0.69838   0.91114   0.50000   0.00000  Uiso   1.00
N925   N     0.69838   0.92225   0.50000   0.00000  Uiso   1.00
N926   N     0.71888   0.92780   0.50000   0.00000  Uiso   1.00
N927   N     0.75988   0.90558   0.50000   0.00000  Uiso   1.00
N928   N     0.73938   0.91114   0.50000   0.00000  Uiso   1.00
N929   N     0.73938   0.92225   0.50000   0.00000  Uiso   1.00
N930   N     0.75988   0.92780   0.50000   0.00000  Uiso   1.00
N931   N     0.78038   0.91114   0.50000   0.00000  Uiso   1.00
N932   N     0.78038   0.92225   0.50000   0.00000  Uiso   1.00
H933   H     0.18993   0.90668   0.50000   0.00000  Uiso   1.00
H934   H     0.18993   0.92671   0.50000   0.00000  Uiso   1.00
H935   H     0.79684   0.90668   0.50000   0.00000  Uiso   1.00
H936   H     0.79684   0.92671   0.50000   0.00000  Uiso   1.00
N937   N     0.22688   0.93892   0.50000   0.00000  Uiso   1.00
N938   N     0.20638   0.94447   0.50000   0.00000  Uiso   1.00
N939   N     0.20638   0.95558   0.50000   0.00000  Uiso   1.00
N940   N     0.22688   0.96114   0.50000   0.00000  Uiso   1.00
N941   N     0.26788   0.93892   0.50000   0.00000  Uiso   1.00
N942   N     0.24738   0.94447   0.50000   0.00000  Uiso   1.00
N943   N     0.24738   0.95558   0.50000   0.00000  Uiso   1.00
N944   N     0.26788   0.96114   0.50000   0.00000  Uiso   1.00
N945   N     0.30888   0.93892   0.50000   0.00000  Uiso   1.00
N946   N     0.28838   0.94447   0.50000   0.00000  Uiso   1.00
N947   N     0.28838   0.95558   0.50000   0.00000  Uiso   1.00
N948   N     0.30888   0.96114   0.50000   0.00000  Uiso   1.00
N949   N     0.34988   0.93892   0.50000   0.00000  Uiso   1.00
N950   N     0.32938   0.94447   0.50000   0.00000  Uiso   1.00
N951   N     0.32938   0.95558   0.50000   0.00000  Uiso   1.00
N952   N     0.34988   0.96114   0.50000   0.00000  Uiso   1.00
N953   N     0.39088   0.93892   0.50000   0.00000  Uiso   1.00
N954   N     0.37038   0.94447   0.50000   0.00000  Uiso   1.00
N955   N     0.37038   0.95558   0.50000   0.00000  Uiso   1.00
N956   N     0.39088   0.96114   0.50000   0.00000  Uiso   1.00
N957   N     0.43188   0.93892   0.50000   0.00000  Uiso   1.00
N958   N     0.41138   0.94447   0.50000   0.00000  Uiso   1.00
N959   N     0.41138   0.95558   0.50000   0.00000  Uiso   1.00
N960   N     0.43188   0.96114   0.50000   0.00000  Uiso   1.00
N961   N     0.47288   0.93892   0.50000   0.00000  Uiso   1.00
N962   N     0.45238   0.94447   0.50000   0.00000  Uiso   1.00
N963   N     0.45238   0.95558   0.50000   0.00000  Uiso   1.00
N964   N     0.47288   0.96114   0.50000   0.00000  Uiso   1.00
N965   N     0.51388   0.93892   0.50000   0.00000  Uiso   1.00
N966   N     0.49338   0.94447   0.50000   0.00000  Uiso   1.00
N967   N     0.49338   0.95558   0.50000   0.00000  Uiso   1.00
N968   N     0.51388   0.96114   0.50000   0.00000  Uiso   1.00
N969   N     0.55488   0.93892   0.50000   0.00000  Uiso   1.00
N970   N     0.53438   0.94447   0.50000   0.00000  Uiso   1.00
N971   N     0.53438   0.95558   0.50000   0.00000  Uiso   1.00
N972   N     0.55488   0.96114   0.50000   0.00000  Uiso   1.00
N973   N     0.59588   0.93892   0.50000   0.00000  Uiso   1.00
N974   N     0.57538   0.94447   0.50000   0.00000  Uiso   1.00
N975   N     0.57538   0.95558   0.50000   0.00000  Uiso   1.00
N976   N     0.59588   0.96114   0.50000   0.00000  Uiso   1.00
N977   N     0.63688   0.93892   0.50000   0.00000  Uiso   1.00
N978   N     0.61638   0.94447   0.50000   0.00000  Uiso   1.00
N979   N     0.61638   0.95558   0.50000   0.00000  Uiso   1.00
N980   N     0.63688   0.96114   0.50000   0.00000  Uiso   1.00
N981   N     0.67788   0.93892   0.50000   0.00000  Uiso   1.00
N982   N     0.65738   0.94447   0.50000   0.00000  Uiso   1.00
N983   N     0.65738   0.95558   0.50000   0.00000  Uiso   1.00
N984   N     0.67788   0.96114   0.50000   0.00000  Uiso   1.00
N985   N     0.71888   0.93892   0.50000   0.00000  Uiso   1.00
N986   N     0.69838   0.94447   0.50000   0.00000  Uiso   1.00
N987   N     0.69838   0.95558   0.50000   0.00000  Uiso   1.00
N988   N     0.71888   0.96114   0.50000   0.00000  Uiso   1.00
N989   N     0.75988   0.93892   0.50000   0.00000  Uiso   1.00
N990   N     0.73938   0.94447   0.50000   0.00000  Uiso   1.00
N991   N     0.73938   0.95558   0.50000   0.00000  Uiso   1.00
N992   N     0.75988   0.96114   0.50000   0.00000  Uiso   1.00
N993   N     0.78038   0.94447   0.50000   0.00000  Uiso   1.00
N994   N     0.78038   0.95558   0.50000   0.00000  Uiso   1.00
H995   H     0.18993   0.94001   0.50000   0.00000  Uiso   1.00
H996   H     0.18993   0.96004   0.50000   0.00000  Uiso   1.00
H997   H     0.79684   0.94001   0.50000   0.00000  Uiso   1.00
H998   H     0.79684   0.96004   0.50000   0.00000  Uiso   1.00
N999   N     0.22688   0.97225   0.50000   0.00000  Uiso   1.00
N1000  N     0.20638   0.97780   0.50000   0.00000  Uiso   1.00
N1001  N     0.20638   0.98892   0.50000   0.00000  Uiso   1.00
N1002  N     0.22688   0.99447   0.50000   0.00000  Uiso   1.00
N1003  N     0.26788   0.97225   0.50000   0.00000  Uiso   1.00
N1004  N     0.24738   0.97780   0.50000   0.00000  Uiso   1.00
N1005  N     0.24738   0.98892   0.50000   0.00000  Uiso   1.00
N1006  N     0.26788   0.99447   0.50000   0.00000  Uiso   1.00
N1007  N     0.30888   0.97225   0.50000   0.00000  Uiso   1.00
N1008  N     0.28838   0.97780   0.50000   0.00000  Uiso   1.00
N1009  N     0.28838   0.98892   0.50000   0.00000  Uiso   1.00
N1010  N     0.30888   0.99447   0.50000   0.00000  Uiso   1.00
N1011  N     0.34988   0.97225   0.50000   0.00000  Uiso   1.00
N1012  N     0.32938   0.97780   0.50000   0.00000  Uiso   1.00
N1013  N     0.32938   0.98892   0.50000   0.00000  Uiso   1.00
N1014  N     0.34988   0.99447   0.50000   0.00000  Uiso   1.00
N1015  N     0.39088   0.97225   0.50000   0.00000  Uiso   1.00
N1016  N     0.37038   0.97780   0.50000   0.00000  Uiso   1.00
N1017  N     0.37038   0.98892   0.50000   0.00000  Uiso   1.00
N1018  N     0.39088   0.99447   0.50000   0.00000  Uiso   1.00
N1019  N     0.43188   0.97225   0.50000   0.00000  Uiso   1.00
N1020  N     0.41138   0.97780   0.50000   0.00000  Uiso   1.00
N1021  N     0.41138   0.98892   0.50000   0.00000  Uiso   1.00
N1022  N     0.43188   0.99447   0.50000   0.00000  Uiso   1.00
N1023  N     0.47288   0.97225   0.50000   0.00000  Uiso   1.00
N1024  N     0.45238   0.97780   0.50000   0.00000  Uiso   1.00
N1025  N     0.45238   0.98892   0.50000   0.00000  Uiso   1.00
N1026  N     0.47288   0.99447   0.50000   0.00000  Uiso   1.00
N1027  N     0.51388   0.97225   0.50000   0.00000  Uiso   1.00
N1028  N     0.49338   0.97780   0.50000   0.00000  Uiso   1.00
N1029  N     0.49338   0.98892   0.50000   0.00000  Uiso   1.00
N1030  N     0.51388   0.99447   0.50000   0.00000  Uiso   1.00
N1031  N     0.55488   0.97225   0.50000   0.00000  Uiso   1.00
N1032  N     0.53438   0.97780   0.50000   0.00000  Uiso   1.00
N1033  N     0.53438   0.98892   0.50000   0.00000  Uiso   1.00
N1034  N     0.55488   0.99447   0.50000   0.00000  Uiso   1.00
N1035  N     0.59588   0.97225   0.50000   0.00000  Uiso   1.00
N1036  N     0.57538   0.97780   0.50000   0.00000  Uiso   1.00
N1037  N     0.57538   0.98892   0.50000   0.00000  Uiso   1.00
N1038  N     0.59588   0.99447   0.50000   0.00000  Uiso   1.00
N1039  N     0.63688   0.97225   0.50000   0.00000  Uiso   1.00
N1040  N     0.61638   0.97780   0.50000   0.00000  Uiso   1.00
N1041  N     0.61638   0.98892   0.50000   0.00000  Uiso   1.00
N1042  N     0.63688   0.99447   0.50000   0.00000  Uiso   1.00
N1043  N     0.67788   0.97225   0.50000   0.00000  Uiso   1.00
N1044  N     0.65738   0.97780   0.50000   0.00000  Uiso   1.00
N1045  N     0.65738   0.98892   0.50000   0.00000  Uiso   1.00
N1046  N     0.67788   0.99447   0.50000   0.00000  Uiso   1.00
N1047  N     0.71888   0.97225   0.50000   0.00000  Uiso   1.00
N1048  N     0.69838   0.97780   0.50000   0.00000  Uiso   1.00
N1049  N     0.69838   0.98892   0.50000   0.00000  Uiso   1.00
N1050  N     0.71888   0.99447   0.50000   0.00000  Uiso   1.00
N1051  N     0.75988   0.97225   0.50000   0.00000  Uiso   1.00
N1052  N     0.73938   0.97780   0.50000   0.00000  Uiso   1.00
N1053  N     0.73938   0.98892   0.50000   0.00000  Uiso   1.00
N1054  N     0.75988   0.99447   0.50000   0.00000  Uiso   1.00
N1055  N     0.78038   0.97780   0.50000   0.00000  Uiso   1.00
N1056  N     0.78038   0.98892   0.50000   0.00000  Uiso   1.00
H1057  H     0.18993   0.97335   0.50000   0.00000  Uiso   1.00
H1058  H     0.18993   0.99337   0.50000   0.00000  Uiso   1.00
H1059  H     0.79684   0.97335   0.50000   0.00000  Uiso   1.00
H1060  H     0.79684   0.99337   0.50000   0.00000  Uiso   1.00
H1061  H     0.22688   0.17006   0.50000   0.00000  Uiso   1.00
H1062  H     0.26788   0.17006   0.50000   0.00000  Uiso   1.00
H1063  H     0.30888   0.17006   0.50000   0.00000  Uiso   1.00
H1064  H     0.34988   0.17006   0.50000   0.00000  Uiso   1.00
H1065  H     0.63688   0.17006   0.50000   0.00000  Uiso   1.00
H1066  H     0.67788   0.17006   0.50000   0.00000  Uiso   1.00
H1067  H     0.71888   0.17006   0.50000   0.00000  Uiso   1.00
H1068  H     0.75988   0.17006   0.50000   0.00000  Uiso   1.00
H1069  H     0.37443   0.17671   0.50000   0.00000  Uiso   1.00
H1070  H     0.37443   0.19001   0.50000   0.00000  Uiso   1.00
H1071  H     0.61234   0.17671   0.50000   0.00000  Uiso   1.00
H1072  H     0.61234   0.19001   0.50000   0.00000  Uiso   1.00
H1073  H     0.37443   0.21004   0.50000   0.00000  Uiso   1.00
H1074  H     0.37443   0.22335   0.50000   0.00000  Uiso   1.00
H1075  H     0.61234   0.21004   0.50000   0.00000  Uiso   1.00
H1076  H     0.61234   0.22335   0.50000   0.00000  Uiso   1.00
H1077  H     0.37443   0.24337   0.50000   0.00000  Uiso   1.00
H1078  H     0.37443   0.25668   0.50000   0.00000  Uiso   1.00
H1079  H     0.61234   0.24337   0.50000   0.00000  Uiso   1.00
H1080  H     0.61234   0.25668   0.50000   0.00000  Uiso   1.00
H1081  H     0.37443   0.27671   0.50000   0.00000  Uiso   1.00
H1082  H     0.37443   0.29001   0.50000   0.00000  Uiso   1.00
H1083  H     0.61234   0.27671   0.50000   0.00000  Uiso   1.00
H1084  H     0.61234   0.29001   0.50000   0.00000  Uiso   1.00
H1085  H     0.37443   0.31004   0.50000   0.00000  Uiso   1.00
H1086  H     0.37443   0.32335   0.50000   0.00000  Uiso   1.00
H1087  H     0.61234   0.31004   0.50000   0.00000  Uiso   1.00
H1088  H     0.61234   0.32335   0.50000   0.00000  Uiso   1.00
H1089  H     0.37443   0.34337   0.50000   0.00000  Uiso   1.00
H1090  H     0.37443   0.35668   0.50000   0.00000  Uiso   1.00
H1091  H     0.61234   0.34337   0.50000   0.00000  Uiso   1.00
H1092  H     0.61234   0.35668   0.50000   0.00000  Uiso   1.00
H1093  H     0.37443   0.37671   0.50000   0.00000  Uiso   1.00
H1094  H     0.37443   0.39001   0.50000   0.00000  Uiso   1.00
H1095  H     0.61234   0.37671   0.50000   0.00000  Uiso   1.00
H1096  H     0.61234   0.39001   0.50000   0.00000  Uiso   1.00
H1097  H     0.37443   0.41004   0.50000   0.00000  Uiso   1.00
H1098  H     0.37443   0.42335   0.50000   0.00000  Uiso   1.00
H1099  H     0.61234   0.41004   0.50000   0.00000  Uiso   1.00
H1100  H     0.61234   0.42335   0.50000   0.00000  Uiso   1.00
H1101  H     0.37443   0.44337   0.50000   0.00000  Uiso   1.00
H1102  H     0.37443   0.45668   0.50000   0.00000  Uiso   1.00
H1103  H     0.61234   0.44337   0.50000   0.00000  Uiso   1.00
H1104  H     0.61234   0.45668   0.50000   0.00000  Uiso   1.00
H1105  H     0.37443   0.47671   0.50000   0.00000  Uiso   1.00
H1106  H     0.37443   0.49001   0.50000   0.00000  Uiso   1.00
H1107  H     0.61234   0.47671   0.50000   0.00000  Uiso   1.00
H1108  H     0.61234   0.49001   0.50000   0.00000  Uiso   1.00
H1109  H     0.37443   0.51004   0.50000   0.00000  Uiso   1.00
H1110  H     0.37443   0.52335   0.50000   0.00000  Uiso   1.00
H1111  H     0.61234   0.51004   0.50000   0.00000  Uiso   1.00
H1112  H     0.61234   0.52335   0.50000   0.00000  Uiso   1.00
H1113  H     0.37443   0.54337   0.50000   0.00000  Uiso   1.00
H1114  H     0.37443   0.55668   0.50000   0.00000  Uiso   1.00
H1115  H     0.61234   0.54337   0.50000   0.00000  Uiso   1.00
H1116  H     0.61234   0.55668   0.50000   0.00000  Uiso   1.00
H1117  H     0.37443   0.57671   0.50000   0.00000  Uiso   1.00
H1118  H     0.37443   0.59001   0.50000   0.00000  Uiso   1.00
H1119  H     0.61234   0.57671   0.50000   0.00000  Uiso   1.00
H1120  H     0.61234   0.59001   0.50000   0.00000  Uiso   1.00
H1121  H     0.37443   0.61004   0.50000   0.00000  Uiso   1.00
H1122  H     0.37443   0.62335   0.50000   0.00000  Uiso   1.00
H1123  H     0.61234   0.61004   0.50000   0.00000  Uiso   1.00
H1124  H     0.61234   0.62335   0.50000   0.00000  Uiso   1.00
H1125  H     0.37443   0.64337   0.50000   0.00000  Uiso   1.00
H1126  H     0.37443   0.65668   0.50000   0.00000  Uiso   1.00
H1127  H     0.61234   0.64337   0.50000   0.00000  Uiso   1.00
H1128  H     0.61234   0.65668   0.50000   0.00000  Uiso   1.00
H1129  H     0.37443   0.67671   0.50000   0.00000  Uiso   1.00
H1130  H     0.37443   0.69001   0.50000   0.00000  Uiso   1.00
H1131  H     0.61234   0.67671   0.50000   0.00000  Uiso   1.00
H1132  H     0.61234   0.69001   0.50000   0.00000  Uiso   1.00
H1133  H     0.37443   0.71004   0.50000   0.00000  Uiso   1.00
H1134  H     0.37443   0.72335   0.50000   0.00000  Uiso   1.00
H1135  H     0.61234   0.71004   0.50000   0.00000  Uiso   1.00
H1136  H     0.61234   0.72335   0.50000   0.00000  Uiso   1.00
H1137  H     0.37443   0.74337   0.50000   0.00000  Uiso   1.00
H1138  H     0.37443   0.75668   0.50000   0.00000  Uiso   1.00
H1139  H     0.61234   0.74337   0.50000   0.00000  Uiso   1.00
H1140  H     0.61234   0.75668   0.50000   0.00000  Uiso   1.00
H1141  H     0.37443   0.77671   0.50000   0.00000  Uiso   1.00
H1142  H     0.37443   0.79001   0.50000   0.00000  Uiso   1.00
H1143  H     0.61234   0.77671   0.50000   0.00000  Uiso   1.00
H1144  H     0.61234   0.79001   0.50000   0.00000  Uiso   1.00
H1145  H     0.37443   0.81004   0.50000   0.00000  Uiso   1.00
H1146  H     0.37443   0.82335   0.50000   0.00000  Uiso   1.00
H1147  H     0.61234   0.81004   0.50000   0.00000  Uiso   1.00
H1148  H     0.61234   0.82335   0.50000   0.00000  Uiso   1.00
H1149  H     0.22688   0.83000   0.50000   0.00000  Uiso   1.00
H1150  H     0.26788   0.83000   0.50000   0.00000  Uiso   1.00
H1151  H     0.30888   0.83000   0.50000   0.00000  Uiso   1.00
H1152  H     0.34988   0.83000   0.50000   0.00000  Uiso   1.00
H1153  H     0.63688   0.83000   0.50000   0.00000  Uiso   1.00
H1154  H     0.67788   0.83000   0.50000   0.00000  Uiso   1.00
H1155  H     0.71888   0.83000   0.50000   0.00000  Uiso   1.00
H1156  H     0.75988   0.83000   0.50000   0.00000  Uiso   1.00
loop_
_geom_bond_atom_site_label_1
_geom_bond_atom_site_label_2
_geom_bond_distance
_geom_bond_site_symmetry_2
_ccdc_geom_bond_type
N1     N6      1.420   .     A
N1     N2      1.420   .     A
N1     N1002   1.420   1_545 S
N2     N3      1.420   .     A
N2     H59     1.140   .     S
N3     N4      1.420   .     A
N3     H60     1.140   .     S
N4     N7      1.420   .     A
N4     N63     1.420   .     S
N5     N10     1.420   .     A
N5     N6      1.420   .     A
N5     N1006   1.420   1_545 S
N6     N7      1.420   .     A
N7     N8      1.420   .     A
N8     N11     1.420   .     A
N8     N67     1.420   .     S
N9     N14     1.420   .     A
N9     N10     1.420   .     A
N9     N1010   1.420   1_545 S
N10    N11     1.420   .     A
N11    N12     1.420   .     A
N12    N15     1.420   .     A
N12    N71     1.420   .     S
N13    N18     1.420   .     A
N13    N14     1.420   .     A
N13    N1014   1.420   1_545 S
N14    N15     1.420   .     A
N15    N16     1.420   .     A
N16    N19     1.420   .     A
N16    N75     1.420   .     S
N17    N22     1.420   .     A
N17    N18     1.420   .     A
N17    N1018   1.420   1_545 S
N18    N19     1.420   .     A
N19    N20     1.420   .     A
N20    N23     1.420   .     A
N20    N79     1.420   .     S
N21    N26     1.420   .     A
N21    N22     1.420   .     A
N21    N1022   1.420   1_545 S
N22    N23     1.420   .     A
N23    N24     1.420   .     A
N24    N27     1.420   .     A
N24    N83     1.420   .     S
N25    N30     1.420   .     A
N25    N26     1.420   .     A
N25    N1026   1.420   1_545 S
N26    N27     1.420   .     A
N27    N28     1.420   .     A
N28    N31     1.420   .     A
N28    N87     1.420   .     S
N29    N34     1.420   .     A
N29    N30     1.420   .     A
N29    N1030   1.420   1_545 S
N30    N31     1.420   .     A
N31    N32     1.420   .     A
N32    N35     1.420   .     A
N32    N91     1.420   .     S
N33    N38     1.420   .     A
N33    N34     1.420   .     A
N33    N1034   1.420   1_545 S
N34    N35     1.420   .     A
N35    N36     1.420   .     A
N36    N39     1.420   .     A
N36    N95     1.420   .     S
N37    N42     1.420   .     A
N37    N38     1.420   .     A
N37    N1038   1.420   1_545 S
N38    N39     1.420   .     A
N39    N40     1.420   .     A
N40    N43     1.420   .     A
N40    N99     1.420   .     S
N41    N46     1.420   .     A
N41    N42     1.420   .     A
N41    N1042   1.420   1_545 S
N42    N43     1.420   .     A
N43    N44     1.420   .     A
N44    N47     1.420   .     A
N44    N103    1.420   .     S
N45    N50     1.420   .     A
N45    N46     1.420   .     A
N45    N1046   1.420   1_545 S
N46    N47     1.420   .     A
N47    N48     1.420   .     A
N48    N51     1.420   .     A
N48    N107    1.420   .     S
N49    N54     1.420   .     A
N49    N50     1.420   .     A
N49    N1050   1.420   1_545 S
N50    N51     1.420   .     A
N51    N52     1.420   .     A
N52    N55     1.420   .     A
N52    N111    1.420   .     S
N53    N57     1.420   .     A
N53    N54     1.420   .     A
N53    N1054   1.420   1_545 S
N54    N55     1.420   .     A
N55    N56     1.420   .     A
N56    N58     1.420   .     A
N56    N115    1.420   .     S
N57    N58     1.420   .     A
N57    H61     1.140   .     S
N58    H62     1.140   .     S
N63    N68     1.420   .     A
N63    N64     1.420   .     A
N64    N65     1.420   .     A
N64    H121    1.140   .     S
N65    N66     1.420   .     A
N65    H122    1.140   .     S
N66    N69     1.420   .     A
N66    N125    1.420   .     S
N67    N72     1.420   .     A
N67    N68     1.420   .     A
N68    N69     1.420   .     A
N69    N70     1.420   .     A
N70    N73     1.420   .     A
N70    N129    1.420   .     S
N71    N76     1.420   .     A
N71    N72     1.420   .     A
N72    N73     1.420   .     A
N73    N74     1.420   .     A
N74    N77     1.420   .     A
N74    N133    1.420   .     S
N75    N80     1.420   .     A
N75    N76     1.420   .     A
N76    N77     1.420   .     A
N77    N78     1.420   .     A
N78    N81     1.420   .     A
N78    N137    1.420   .     S
N79    N84     1.420   .     A
N79    N80     1.420   .     A
N80    N81     1.420   .     A
N81    N82     1.420   .     A
N82    N85     1.420   .     A
N82    N141    1.420   .     S
N83    N88     1.420   .     A
N83    N84     1.420   .     A
N84    N85     1.420   .     A
N85    N86     1.420   .     A
N86    N89     1.420   .     A
N86    N145    1.420   .     S
N87    N92     1.420   .     A
N87    N88     1.420   .     A
N88    N89     1.420   .     A
N89    N90     1.420   .     A
N90    N93     1.420   .     A
N90    N149    1.420   .     S
N91    N96     1.420   .     A
N91    N92     1.420   .     A
N92    N93     1.420   .     A
N93    N94     1.420   .     A
N94    N97     1.420   .     A
N94    N153    1.420   .     S
N95    N100    1.420   .     A
N95    N96     1.420   .     A
N96    N97     1.420   .     A
N97    N98     1.420   .     A
N98    N101    1.420   .     A
N98    N157    1.420   .     S
N99    N104    1.420   .     A
N99    N100    1.420   .     A
N100   N101    1.420   .     A
N101   N102    1.420   .     A
N102   N105    1.420   .     A
N102   N161    1.420   .     S
N103   N108    1.420   .     A
N103   N104    1.420   .     A
N104   N105    1.420   .     A
N105   N106    1.420   .     A
N106   N109    1.420   .     A
N106   N165    1.420   .     S
N107   N112    1.420   .     A
N107   N108    1.420   .     A
N108   N109    1.420   .     A
N109   N110    1.420   .     A
N110   N113    1.420   .     A
N110   N169    1.420   .     S
N111   N116    1.420   .     A
N111   N112    1.420   .     A
N112   N113    1.420   .     A
N113   N114    1.420   .     A
N114   N117    1.420   .     A
N114   N173    1.420   .     S
N115   N119    1.420   .     A
N115   N116    1.420   .     A
N116   N117    1.420   .     A
N117   N118    1.420   .     A
N118   N120    1.420   .     A
N118   N177    1.420   .     S
N119   N120    1.420   .     A
N119   H123    1.140   .     S
N120   H124    1.140   .     S
N125   N130    1.420   .     A
N125   N126    1.420   .     A
N126   N127    1.420   .     A
N126   H183    1.140   .     S
N127   N128    1.420   .     A
N127   H184    1.140   .     S
N128   N131    1.420   .     A
N128   N187    1.420   .     S
N129   N134    1.420   .     A
N129   N130    1.420   .     A
N130   N131    1.420   .     A
N131   N132    1.420   .     A
N132   N135    1.420   .     A
N132   N191    1.420   .     S
N133   N138    1.420   .     A
N133   N134    1.420   .     A
N134   N135    1.420   .     A
N135   N136    1.420   .     A
N136   N139    1.420   .     A
N136   N195    1.420   .     S
N137   N142    1.420   .     A
N137   N138    1.420   .     A
N138   N139    1.420   .     A
N139   N140    1.420   .     A
N140   N143    1.420   .     A
N140   N199    1.420   .     S
N141   N146    1.420   .     A
N141   N142    1.420   .     A
N142   N143    1.420   .     A
N143   N144    1.420   .     A
N144   N147    1.420   .     A
N144   N203    1.420   .     S
N145   N150    1.420   .     A
N145   N146    1.420   .     A
N146   N147    1.420   .     A
N147   N148    1.420   .     A
N148   N151    1.420   .     A
N148   N207    1.420   .     S
N149   N154    1.420   .     A
N149   N150    1.420   .     A
N150   N151    1.420   .     A
N151   N152    1.420   .     A
N152   N155    1.420   .     A
N152   N211    1.420   .     S
N153   N158    1.420   .     A
N153   N154    1.420   .     A
N154   N155    1.420   .     A
N155   N156    1.420   .     A
N156   N159    1.420   .     A
N156   N215    1.420   .     S
N157   N162    1.420   .     A
N157   N158    1.420   .     A
N158   N159    1.420   .     A
N159   N160    1.420   .     A
N160   N163    1.420   .     A
N160   N219    1.420   .     S
N161   N166    1.420   .     A
N161   N162    1.420   .     A
N162   N163    1.420   .     A
N163   N164    1.420   .     A
N164   N167    1.420   .     A
N164   N223    1.420   .     S
N165   N170    1.420   .     A
N165   N166    1.420   .     A
N166   N167    1.420   .     A
N167   N168    1.420   .     A
N168   N171    1.420   .     A
N168   N227    1.420   .     S
N169   N174    1.420   .     A
N169   N170    1.420   .     A
N170   N171    1.420   .     A
N171   N172    1.420   .     A
N172   N175    1.420   .     A
N172   N231    1.420   .     S
N173   N178    1.420   .     A
N173   N174    1.420   .     A
N174   N175    1.420   .     A
N175   N176    1.420   .     A
N176   N179    1.420   .     A
N176   N235    1.420   .     S
N177   N181    1.420   .     A
N177   N178    1.420   .     A
N178   N179    1.420   .     A
N179   N180    1.420   .     A
N180   N182    1.420   .     A
N180   N239    1.420   .     S
N181   N182    1.420   .     A
N181   H185    1.140   .     S
N182   H186    1.140   .     S
N187   N192    1.420   .     A
N187   N188    1.420   .     A
N188   N189    1.420   .     A
N188   H245    1.140   .     S
N189   N190    1.420   .     A
N189   H246    1.140   .     S
N190   N193    1.420   .     A
N190   N249    1.420   .     S
N191   N196    1.420   .     A
N191   N192    1.420   .     A
N192   N193    1.420   .     A
N193   N194    1.420   .     A
N194   N197    1.420   .     A
N194   N253    1.420   .     S
N195   N200    1.420   .     A
N195   N196    1.420   .     A
N196   N197    1.420   .     A
N197   N198    1.420   .     A
N198   N201    1.420   .     A
N198   N257    1.420   .     S
N199   N204    1.420   .     A
N199   N200    1.420   .     A
N200   N201    1.420   .     A
N201   N202    1.420   .     A
N202   N205    1.420   .     A
N202   N261    1.420   .     S
N203   N208    1.420   .     A
N203   N204    1.420   .     A
N204   N205    1.420   .     A
N205   N206    1.420   .     A
N206   N209    1.420   .     A
N206   N265    1.420   .     S
N207   N212    1.420   .     A
N207   N208    1.420   .     A
N208   N209    1.420   .     A
N209   N210    1.420   .     A
N210   N213    1.420   .     A
N210   N269    1.420   .     S
N211   N216    1.420   .     A
N211   N212    1.420   .     A
N212   N213    1.420   .     A
N213   N214    1.420   .     A
N214   N217    1.420   .     A
N214   N273    1.420   .     S
N215   N220    1.420   .     A
N215   N216    1.420   .     A
N216   N217    1.420   .     A
N217   N218    1.420   .     A
N218   N221    1.420   .     A
N218   N277    1.420   .     S
N219   N224    1.420   .     A
N219   N220    1.420   .     A
N220   N221    1.420   .     A
N221   N222    1.420   .     A
N222   N225    1.420   .     A
N222   N281    1.420   .     S
N223   N228    1.420   .     A
N223   N224    1.420   .     A
N224   N225    1.420   .     A
N225   N226    1.420   .     A
N226   N229    1.420   .     A
N226   N285    1.420   .     S
N227   N232    1.420   .     A
N227   N228    1.420   .     A
N228   N229    1.420   .     A
N229   N230    1.420   .     A
N230   N233    1.420   .     A
N230   N289    1.420   .     S
N231   N236    1.420   .     A
N231   N232    1.420   .     A
N232   N233    1.420   .     A
N233   N234    1.420   .     A
N234   N237    1.420   .     A
N234   N293    1.420   .     S
N235   N240    1.420   .     A
N235   N236    1.420   .     A
N236   N237    1.420   .     A
N237   N238    1.420   .     A
N238   N241    1.420   .     A
N238   N297    1.420   .     S
N239   N243    1.420   .     A
N239   N240    1.420   .     A
N240   N241    1.420   .     A
N241   N242    1.420   .     A
N242   N244    1.420   .     A
N242   N301    1.420   .     S
N243   N244    1.420   .     A
N243   H247    1.140   .     S
N244   H248    1.140   .     S
N249   N254    1.420   .     A
N249   N250    1.420   .     A
N250   N251    1.420   .     A
N250   H307    1.140   .     S
N251   N252    1.420   .     A
N251   H308    1.140   .     S
N252   N255    1.420   .     A
N252   H1061   1.140   .     S
N253   N258    1.420   .     A
N253   N254    1.420   .     A
N254   N255    1.420   .     A
N255   N256    1.420   .     A
N256   N259    1.420   .     A
N256   H1062   1.140   .     S
N257   N262    1.420   .     A
N257   N258    1.420   .     A
N258   N259    1.420   .     A
N259   N260    1.420   .     A
N260   N263    1.420   .     A
N260   H1063   1.140   .     S
N261   N266    1.420   .     A
N261   N262    1.420   .     A
N262   N263    1.420   .     A
N263   N264    1.420   .     A
N264   N267    1.420   .     A
N264   H1064   1.140   .     S
N265   N270    1.420   .     A
N265   N266    1.420   .     A
N266   N267    1.420   .     A
N267   N268    1.420   .     A
N268   N271    1.420   .     A
N268   C311    1.420   .     S
N269   N274    1.420   .     A
N269   N270    1.420   .     A
N270   N271    1.420   .     A
N271   N272    1.420   .     A
N272   N275    1.420   .     A
N272   C313    1.420   .     S
N273   N278    1.420   .     A
N273   N274    1.420   .     A
N274   N275    1.420   .     A
N275   N276    1.420   .     A
N276   N279    1.420   .     A
N276   C317    1.420   .     S
N277   N282    1.420   .     A
N277   N278    1.420   .     A
N278   N279    1.420   .     A
N279   N280    1.420   .     A
N280   N283    1.420   .     A
N280   C321    1.420   .     S
N281   N286    1.420   .     A
N281   N282    1.420   .     A
N282   N283    1.420   .     A
N283   N284    1.420   .     A
N284   N287    1.420   .     A
N284   C325    1.420   .     S
N285   N290    1.420   .     A
N285   N286    1.420   .     A
N286   N287    1.420   .     A
N287   N288    1.420   .     A
N288   N291    1.420   .     A
N288   C329    1.420   .     S
N289   N294    1.420   .     A
N289   N290    1.420   .     A
N290   N291    1.420   .     A
N291   N292    1.420   .     A
N292   N295    1.420   .     A
N292   H1065   1.140   .     S
N293   N298    1.420   .     A
N293   N294    1.420   .     A
N294   N295    1.420   .     A
N295   N296    1.420   .     A
N296   N299    1.420   .     A
N296   H1066   1.140   .     S
N297   N302    1.420   .     A
N297   N298    1.420   .     A
N298   N299    1.420   .     A
N299   N300    1.420   .     A
N300   N303    1.420   .     A
N300   H1067   1.140   .     S
N301   N305    1.420   .     A
N301   N302    1.420   .     A
N302   N303    1.420   .     A
N303   N304    1.420   .     A
N304   N306    1.420   .     A
N304   H1068   1.140   .     S
N305   N306    1.420   .     A
N305   H309    1.140   .     S
N306   H310    1.140   .     S
C311   C314    1.420   .     A
C311   H1069   1.140   .     S
C312   C315    1.420   .     A
C312   C333    1.420   .     S
C312   H1070   1.140   .     S
C313   C318    1.420   .     A
C313   C314    1.420   .     A
C314   C315    1.420   .     A
C315   C316    1.420   .     A
C316   C319    1.420   .     A
C316   C335    1.420   .     S
C317   C322    1.420   .     A
C317   C318    1.420   .     A
C318   C319    1.420   .     A
C319   C320    1.420   .     A
C320   C323    1.420   .     A
C320   C339    1.420   .     S
C321   C326    1.420   .     A
C321   C322    1.420   .     A
C322   C323    1.420   .     A
C323   C324    1.420   .     A
C324   C327    1.420   .     A
C324   C343    1.420   .     S
C325   C330    1.420   .     A
C325   C326    1.420   .     A
C326   C327    1.420   .     A
C327   C328    1.420   .     A
C328   C331    1.420   .     A
C328   C347    1.420   .     S
C329   C330    1.420   .     A
C329   H1071   1.140   .     S
C330   C331    1.420   .     A
C331   C332    1.420   .     A
C332   C351    1.420   .     S
C332   H1072   1.140   .     S
C333   C336    1.420   .     A
C333   H1073   1.140   .     S
C334   C337    1.420   .     A
C334   C355    1.420   .     S
C334   H1074   1.140   .     S
C335   C340    1.420   .     A
C335   C336    1.420   .     A
C336   C337    1.420   .     A
C337   C338    1.420   .     A
C338   C341    1.420   .     A
C338   C357    1.420   .     S
C339   C344    1.420   .     A
C339   C340    1.420   .     A
C340   C341    1.420   .     A
C341   C342    1.420   .     A
C342   C345    1.420   .     A
C342   C361    1.420   .     S
C343   C348    1.420   .     A
C343   C344    1.420   .     A
C344   C345    1.420   .     A
C345   C346    1.420   .     A
C346   C349    1.420   .     A
C346   C365    1.420   .     S
C347   C352    1.420   .     A
C347   C348    1.420   .     A
C348   C349    1.420   .     A
C349   C350    1.420   .     A
C350   C353    1.420   .     A
C350   C369    1.420   .     S
C351   C352    1.420   .     A
C351   H1075   1.140   .     S
C352   C353    1.420   .     A
C353   C354    1.420   .     A
C354   C373    1.420   .     S
C354   H1076   1.140   .     S
C355   C358    1.420   .     A
C355   H1077   1.140   .     S
C356   C359    1.420   .     A
C356   C377    1.420   .     S
C356   H1078   1.140   .     S
C357   C362    1.420   .     A
C357   C358    1.420   .     A
C358   C359    1.420   .     A
C359   C360    1.420   .     A
C360   C363    1.420   .     A
C360   C379    1.420   .     S
C361   C366    1.420   .     A
C361   C362    1.420   .     A
C362   C363    1.420   .     A
C363   C364    1.420   .     A
C364   C367    1.420   .     A
C364   C383    1.420   .     S
C365   C370    1.420   .     A
C365   C366    1.420   .     A
C366   C367    1.420   .     A
C367   C368    1.420   .     A
C368   C371    1.420   .     A
C368   C387    1.420   .     S
C369   C374    1.420   .     A
C369   C370    1.420   .     A
C370   C371    1.420   .     A
C371   C372    1.420   .     A
C372   C375    1.420   .     A
C372   C391    1.420   .     S
C373   C374    1.420   .     A
C373   H1079   1.140   .     S
C374   C375    1.420   .     A
C375   C376    1.420   .     A
C376   C395    1.420   .     S
C376   H1080   1.140   .     S
C377   C380    1.420   .     A
C377   H1081   1.140   .     S
C378   C381    1.420   .     A
C378   C399    1.420   .     S
C378   H1082   1.140   .     S
C379   C384    1.420   .     A
C379   C380    1.420   .     A
C380   C381    1.420   .     A
C381   C382    1.420   .     A
C382   C385    1.420   .     A
C382   C401    1.420   .     S
C383   C388    1.420   .     A
C383   C384    1.420   .     A
C384   C385    1.420   .     A
C385   C386    1.420   .     A
C386   C389    1.420   .     A
C386   C405    1.420   .     S
C387   C392    1.420   .     A
C387   C388    1.420   .     A
C388   C389    1.420   .     A
C389   C390    1.420   .     A
C390   C393    1.420   .     A
C390   C409    1.420   .     S
C391   C396    1.420   .     A
C391   C392    1.420   .     A
C392   C393    1.420   .     A
C393   C394    1.420   .     A
C394   C397    1.420   .     A
C394   C413    1.420   .     S
C395   C396    1.420   .     A
C395   H1083   1.140   .     S
C396   C397    1.420   .     A
C397   C398    1.420   .     A
C398   C417    1.420   .     S
C398   H1084   1.140   .     S
C399   C402    1.420   .     A
C399   H1085   1.140   .     S
C400   C403    1.420   .     A
C400   C421    1.420   .     S
C400   H1086   1.140   .     S
C401   C406    1.420   .     A
C401   C402    1.420   .     A
C402   C403    1.420   .     A
C403   C404    1.420   .     A
C404   C407    1.420   .     A
C404   C423    1.420   .     S
C405   C410    1.420   .     A
C405   C406    1.420   .     A
C406   C407    1.420   .     A
C407   C408    1.420   .     A
C408   C411    1.420   .     A
C408   C427    1.420   .     S
C409   C414    1.420   .     A
C409   C410    1.420   .     A
C410   C411    1.420   .     A
C411   C412    1.420   .     A
C412   C415    1.420   .     A
C412   C431    1.420   .     S
C413   C418    1.420   .     A
C413   C414    1.420   .     A
C414   C415    1.420   .     A
C415   C416    1.420   .     A
C416   C419    1.420   .     A
C416   C435    1.420   .     S
C417   C418    1.420   .     A
C417   H1087   1.140   .     S
C418   C419    1.420   .     A
C419   C420    1.420   .     A
C420   C439    1.420   .     S
C420   H1088   1.140   .     S
C421   C424    1.420   .     A
C421   H1089   1.140   .     S
C422   C425    1.420   .     A
C422   C443    1.420   .     S
C422   H1090   1.140   .     S
C423   C428    1.420   .     A
C423   C424    1.420   .     A
C424   C425    1.420   .     A
C425   C426    1.420   .     A
C426   C429    1.420   .     A
C426   C445    1.420   .     S
C427   C432    1.420   .     A
C427   C428    1.420   .     A
C428   C429    1.420   .     A
C429   C430    1.420   .     A
C430   C433    1.420   .     A
C430   C449    1.420   .     S
C431   C436    1.420   .     A
C431   C432    1.420   .     A
C432   C433    1.420   .     A
C433   C434    1.420   .     A
C434   C437    1.420   .     A
C434   C453    1.420   .     S
C435   C440    1.420   .     A
C435   C436    1.420   .     A
C436   C437    1.420   .     A
C437   C438    1.420   .     A
C438   C441    1.420   .     A
C438   C457    1.420   .     S
C439   C440    1.420   .     A
C439   H1091   1.140   .     S
C440   C441    1.420   .     A
C441   C442    1.420   .     A
C442   C461    1.420   .     S
C442   H1092   1.140   .     S
C443   C446    1.420   .     A
C443   H1093   1.140   .     S
C444   C447    1.420   .     A
C444   C465    1.420   .     S
C444   H1094   1.140   .     S
C445   C450    1.420   .     A
C445   C446    1.420   .     A
C446   C447    1.420   .     A
C447   C448    1.420   .     A
C448   C451    1.420   .     A
C448   C467    1.420   .     S
C449   C454    1.420   .     A
C449   C450    1.420   .     A
C450   C451    1.420   .     A
C451   C452    1.420   .     A
C452   C455    1.420   .     A
C452   C471    1.420   .     S
C453   C458    1.420   .     A
C453   C454    1.420   .     A
C454   C455    1.420   .     A
C455   C456    1.420   .     A
C456   C459    1.420   .     A
C456   C475    1.420   .     S
C457   C462    1.420   .     A
C457   C458    1.420   .     A
C458   C459    1.420   .     A
C459   C460    1.420   .     A
C460   C463    1.420   .     A
C460   C479    1.420   .     S
C461   C462    1.420   .     A
C461   H1095   1.140   .     S
C462   C463    1.420   .     A
C463   C464    1.420   .     A
C464   C483    1.420   .     S
C464   H1096   1.140   .     S
C465   C468    1.420   .     A
C465   H1097   1.140   .     S
C466   C469    1.420   .     A
C466   C487    1.420   .     S
C466   H1098   1.140   .     S
C467   C472    1.420   .     A
C467   C468    1.420   .     A
C468   C469    1.420   .     A
C469   C470    1.420   .     A
C470   C473    1.420   .     A
C470   C489    1.420   .     S
C471   C476    1.420   .     A
C471   C472    1.420   .     A
C472   C473    1.420   .     A
C473   C474    1.420   .     A
C474   C477    1.420   .     A
C474   C493    1.420   .     S
C475   C480    1.420   .     A
C475   C476    1.420   .     A
C476   C477    1.420   .     A
C477   C478    1.420   .     A
C478   C481    1.420   .     A
C478   C497    1.420   .     S
C479   C484    1.420   .     A
C479   C480    1.420   .     A
C480   C481    1.420   .     A
C481   C482    1.420   .     A
C482   C485    1.420   .     A
C482   C501    1.420   .     S
C483   C484    1.420   .     A
C483   H1099   1.140   .     S
C484   C485    1.420   .     A
C485   C486    1.420   .     A
C486   C505    1.420   .     S
C486   H1100   1.140   .     S
C487   C490    1.420   .     A
C487   H1101   1.140   .     S
C488   C491    1.420   .     A
C488   C509    1.420   .     S
C488   H1102   1.140   .     S
C489   C494    1.420   .     A
C489   C490    1.420   .     A
C490   C491    1.420   .     A
C491   C492    1.420   .     A
C492   C495    1.420   .     A
C492   C511    1.420   .     S
C493   C498    1.420   .     A
C493   C494    1.420   .     A
C494   C495    1.420   .     A
C495   C496    1.420   .     A
C496   C499    1.420   .     A
C496   C515    1.420   .     S
C497   C502    1.420   .     A
C497   C498    1.420   .     A
C498   C499    1.420   .     A
C499   C500    1.420   .     A
C500   C503    1.420   .     A
C500   C519    1.420   .     S
C501   C506    1.420   .     A
C501   C502    1.420   .     A
C502   C503    1.420   .     A
C503   C504    1.420   .     A
C504   C507    1.420   .     A
C504   C523    1.420   .     S
C505   C506    1.420   .     A
C505   H1103   1.140   .     S
C506   C507    1.420   .     A
C507   C508    1.420   .     A
C508   C527    1.420   .     S
C508   H1104   1.140   .     S
C509   C512    1.420   .     A
C509   H1105   1.140   .     S
C510   C513    1.420   .     A
C510   C531    1.420   .     S
C510   H1106   1.140   .     S
C511   C516    1.420   .     A
C511   C512    1.420   .     A
C512   C513    1.420   .     A
C513   C514    1.420   .     A
C514   C517    1.420   .     A
C514   C533    1.420   .     S
C515   C520    1.420   .     A
C515   C516    1.420   .     A
C516   C517    1.420   .     A
C517   C518    1.420   .     A
C518   C521    1.420   .     A
C518   C537    1.420   .     S
C519   C524    1.420   .     A
C519   C520    1.420   .     A
C520   C521    1.420   .     A
C521   C522    1.420   .     A
C522   C525    1.420   .     A
C522   C541    1.420   .     S
C523   C528    1.420   .     A
C523   C524    1.420   .     A
C524   C525    1.420   .     A
C525   C526    1.420   .     A
C526   C529    1.420   .     A
C526   C545    1.420   .     S
C527   C528    1.420   .     A
C527   H1107   1.140   .     S
C528   C529    1.420   .     A
C529   C530    1.420   .     A
C530   C549    1.420   .     S
C530   H1108   1.140   .     S
C531   C534    1.420   .     A
C531   H1109   1.140   .     S
C532   C535    1.420   .     A
C532   C553    1.420   .     S
C532   H1110   1.140   .     S
C533   C538    1.420   .     A
C533   C534    1.420   .     A
C534   C535    1.420   .     A
C535   C536    1.420   .     A
C536   C539    1.420   .     A
C536   C555    1.420   .     S
C537   C542    1.420   .     A
C537   C538    1.420   .     A
C538   C539    1.420   .     A
C539   C540    1.420   .     A
C540   C543    1.420   .     A
C540   C559    1.420   .     S
C541   C546    1.420   .     A
C541   C542    1.420   .     A
C542   C543    1.420   .     A
C543   C544    1.420   .     A
C544   C547    1.420   .     A
C544   C563    1.420   .     S
C545   C550    1.420   .     A
C545   C546    1.420   .     A
C546   C547    1.420   .     A
C547   C548    1.420   .     A
C548   C551    1.420   .     A
C548   C567    1.420   .     S
C549   C550    1.420   .     A
C549   H1111   1.140   .     S
C550   C551    1.420   .     A
C551   C552    1.420   .     A
C552   C571    1.420   .     S
C552   H1112   1.140   .     S
C553   C556    1.420   .     A
C553   H1113   1.140   .     S
C554   C557    1.420   .     A
C554   C575    1.420   .     S
C554   H1114   1.140   .     S
C555   C560    1.420   .     A
C555   C556    1.420   .     A
C556   C557    1.420   .     A
C557   C558    1.420   .     A
C558   C561    1.420   .     A
C558   C577    1.420   .     S
C559   C564    1.420   .     A
C559   C560    1.420   .     A
C560   C561    1.420   .     A
C561   C562    1.420   .     A
C562   C565    1.420   .     A
C562   C581    1.420   .     S
C563   C568    1.420   .     A
C563   C564    1.420   .     A
C564   C565    1.420   .     A
C565   C566    1.420   .     A
C566   C569    1.420   .     A
C566   C585    1.420   .     S
C567   C572    1.420   .     A
C567   C568    1.420   .     A
C568   C569    1.420   .     A
C569   C570    1.420   .     A
C570   C573    1.420   .     A
C570   C589    1.420   .     S
C571   C572    1.420   .     A
C571   H1115   1.140   .     S
C572   C573    1.420   .     A
C573   C574    1.420   .     A
C574   C593    1.420   .     S
C574   H1116   1.140   .     S
C575   C578    1.420   .     A
C575   H1117   1.140   .     S
C576   C579    1.420   .     A
C576   C597    1.420   .     S
C576   H1118   1.140   .     S
C577   C582    1.420   .     A
C577   C578    1.420   .     A
C578   C579    1.420   .     A
C579   C580    1.420   .     A
C580   C583    1.420   .     A
C580   C599    1.420   .     S
C581   C586    1.420   .     A
C581   C582    1.420   .     A
C582   C583    1.420   .     A
C583   C584    1.420   .     A
C584   C587    1.420   .     A
C584   C603    1.420   .     S
C585   C590    1.420   .     A
C585   C586    1.420   .     A
C586   C587    1.420   .     A
C587   C588    1.420   .     A
C588   C591    1.420   .     A
C588   C607    1.420   .     S
C589   C594    1.420   .     A
C589   C590    1.420   .     A
C590   C591    1.420   .     A
C591   C592    1.420   .     A
C592   C595    1.420   .     A
C592   C611    1.420   .     S
C593   C594    1.420   .     A
C593   H1119   1.140   .     S
C594   C595    1.420   .     A
C595   C596    1.420   .     A
C596   C615    1.420   .     S
C596   H1120   1.140   .     S
C597   C600    1.420   .     A
C597   H1121   1.140   .     S
C598   C601    1.420   .     A
C598   C619    1.420   .     S
C598   H1122   1.140   .     S
C599   C604    1.420   .     A
C599   C600    1.420   .     A
C600   C601    1.420   .     A
C601   C602    1.420   .     A
C602   C605    1.420   .     A
C602   C621    1.420   .     S
C603   C608    1.420   .     A
C603   C604    1.420   .     A
C604   C605    1.420   .     A
C605   C606    1.420   .     A
C606   C609    1.420   .     A
C606   C625    1.420   .     S
C607   C612    1.420   .     A
C607   C608    1.420   .     A
C608   C609    1.420   .     A
C609   C610    1.420   .     A
C610   C613    1.420   .     A
C610   C629    1.420   .     S
C611   C616    1.420   .     A
C611   C612    1.420   .     A
C612   C613    1.420   .     A
C613   C614    1.420   .     A
C614   C617    1.420   .     A
C614   C633    1.420   .     S
C615   C616    1.420   .     A
C615   H1123   1.140   .     S
C616   C617    1.420   .     A
C617   C618    1.420   .     A
C618   C637    1.420   .     S
C618   H1124   1.140   .     S
C619   C622    1.420   .     A
C619   H1125   1.140   .     S
C620   C623    1.420   .     A
C620   C641    1.420   .     S
C620   H1126   1.140   .     S
C621   C626    1.420   .     A
C621   C622    1.420   .     A
C622   C623    1.420   .     A
C623   C624    1.420   .     A
C624   C627    1.420   .     A
C624   C643    1.420   .     S
C625   C630    1.420   .     A
C625   C626    1.420   .     A
C626   C627    1.420   .     A
C627   C628    1.420   .     A
C628   C631    1.420   .     A
C628   C647    1.420   .     S
C629   C634    1.420   .     A
C629   C630    1.420   .     A
C630   C631    1.420   .     A
C631   C632    1.420   .     A
C632   C635    1.420   .     A
C632   C651    1.420   .     S
C633   C638    1.420   .     A
C633   C634    1.420   .     A
C634   C635    1.420   .     A
C635   C636    1.420   .     A
C636   C639    1.420   .     A
C636   C655    1.420   .     S
C637   C638    1.420   .     A
C637   H1127   1.140   .     S
C638   C639    1.420   .     A
C639   C640    1.420   .     A
C640   C659    1.420   .     S
C640   H1128   1.140   .     S
C641   C644    1.420   .     A
C641   H1129   1.140   .     S
C642   C645    1.420   .     A
C642   C663    1.420   .     S
C642   H1130   1.140   .     S
C643   C648    1.420   .     A
C643   C644    1.420   .     A
C644   C645    1.420   .     A
C645   C646    1.420   .     A
C646   C649    1.420   .     A
C646   C665    1.420   .     S
C647   C652    1.420   .     A
C647   C648    1.420   .     A
C648   C649    1.420   .     A
C649   C650    1.420   .     A
C650   C653    1.420   .     A
C650   C669    1.420   .     S
C651   C656    1.420   .     A
C651   C652    1.420   .     A
C652   C653    1.420   .     A
C653   C654    1.420   .     A
C654   C657    1.420   .     A
C654   C673    1.420   .     S
C655   C660    1.420   .     A
C655   C656    1.420   .     A
C656   C657    1.420   .     A
C657   C658    1.420   .     A
C658   C661    1.420   .     A
C658   C677    1.420   .     S
C659   C660    1.420   .     A
C659   H1131   1.140   .     S
C660   C661    1.420   .     A
C661   C662    1.420   .     A
C662   C681    1.420   .     S
C662   H1132   1.140   .     S
C663   C666    1.420   .     A
C663   H1133   1.140   .     S
C664   C667    1.420   .     A
C664   C685    1.420   .     S
C664   H1134   1.140   .     S
C665   C670    1.420   .     A
C665   C666    1.420   .     A
C666   C667    1.420   .     A
C667   C668    1.420   .     A
C668   C671    1.420   .     A
C668   C687    1.420   .     S
C669   C674    1.420   .     A
C669   C670    1.420   .     A
C670   C671    1.420   .     A
C671   C672    1.420   .     A
C672   C675    1.420   .     A
C672   C691    1.420   .     S
C673   C678    1.420   .     A
C673   C674    1.420   .     A
C674   C675    1.420   .     A
C675   C676    1.420   .     A
C676   C679    1.420   .     A
C676   C695    1.420   .     S
C677   C682    1.420   .     A
C677   C678    1.420   .     A
C678   C679    1.420   .     A
C679   C680    1.420   .     A
C680   C683    1.420   .     A
C680   C699    1.420   .     S
C681   C682    1.420   .     A
C681   H1135   1.140   .     S
C682   C683    1.420   .     A
C683   C684    1.420   .     A
C684   C703    1.420   .     S
C684   H1136   1.140   .     S
C685   C688    1.420   .     A
C685   H1137   1.140   .     S
C686   C689    1.420   .     A
C686   C707    1.420   .     S
C686   H1138   1.140   .     S
C687   C692    1.420   .     A
C687   C688    1.420   .     A
C688   C689    1.420   .     A
C689   C690    1.420   .     A
C690   C693    1.420   .     A
C690   C709    1.420   .     S
C691   C696    1.420   .     A
C691   C692    1.420   .     A
C692   C693    1.420   .     A
C693   C694    1.420   .     A
C694   C697    1.420   .     A
C694   C713    1.420   .     S
C695   C700    1.420   .     A
C695   C696    1.420   .     A
C696   C697    1.420   .     A
C697   C698    1.420   .     A
C698   C701    1.420   .     A
C698   C717    1.420   .     S
C699   C704    1.420   .     A
C699   C700    1.420   .     A
C700   C701    1.420   .     A
C701   C702    1.420   .     A
C702   C705    1.420   .     A
C702   C721    1.420   .     S
C703   C704    1.420   .     A
C703   H1139   1.140   .     S
C704   C705    1.420   .     A
C705   C706    1.420   .     A
C706   C725    1.420   .     S
C706   H1140   1.140   .     S
C707   C710    1.420   .     A
C707   H1141   1.140   .     S
C708   C711    1.420   .     A
C708   C729    1.420   .     S
C708   H1142   1.140   .     S
C709   C714    1.420   .     A
C709   C710    1.420   .     A
C710   C711    1.420   .     A
C711   C712    1.420   .     A
C712   C715    1.420   .     A
C712   C731    1.420   .     S
C713   C718    1.420   .     A
C713   C714    1.420   .     A
C714   C715    1.420   .     A
C715   C716    1.420   .     A
C716   C719    1.420   .     A
C716   C735    1.420   .     S
C717   C722    1.420   .     A
C717   C718    1.420   .     A
C718   C719    1.420   .     A
C719   C720    1.420   .     A
C720   C723    1.420   .     A
C720   C739    1.420   .     S
C721   C726    1.420   .     A
C721   C722    1.420   .     A
C722   C723    1.420   .     A
C723   C724    1.420   .     A
C724   C727    1.420   .     A
C724   C743    1.420   .     S
C725   C726    1.420   .     A
C725   H1143   1.140   .     S
C726   C727    1.420   .     A
C727   C728    1.420   .     A
C728   C747    1.420   .     S
C728   H1144   1.140   .     S
C729   C732    1.420   .     A
C729   H1145   1.140   .     S
C730   C733    1.420   .     A
C730   N767    1.420   .     S
C730   H1146   1.140   .     S
C731   C736    1.420   .     A
C731   C732    1.420   .     A
C732   C733    1.420   .     A
C733   C734    1.420   .     A
C734   C737    1.420   .     A
C734   N771    1.420   .     S
C735   C740    1.420   .     A
C735   C736    1.420   .     A
C736   C737    1.420   .     A
C737   C738    1.420   .     A
C738   C741    1.420   .     A
C738   N775    1.420   .     S
C739   C744    1.420   .     A
C739   C740    1.420   .     A
C740   C741    1.420   .     A
C741   C742    1.420   .     A
C742   C745    1.420   .     A
C742   N779    1.420   .     S
C743   C748    1.420   .     A
C743   C744    1.420   .     A
C744   C745    1.420   .     A
C745   C746    1.420   .     A
C746   C749    1.420   .     A
C746   N783    1.420   .     S
C747   C748    1.420   .     A
C747   H1147   1.140   .     S
C748   C749    1.420   .     A
C749   C750    1.420   .     A
C750   N787    1.420   .     S
C750   H1148   1.140   .     S
N751   N756    1.420   .     A
N751   N752    1.420   .     A
N751   H1149   1.140   .     S
N752   N753    1.420   .     A
N752   H809    1.140   .     S
N753   N754    1.420   .     A
N753   H810    1.140   .     S
N754   N757    1.420   .     A
N754   N813    1.420   .     S
N755   N760    1.420   .     A
N755   N756    1.420   .     A
N755   H1150   1.140   .     S
N756   N757    1.420   .     A
N757   N758    1.420   .     A
N758   N761    1.420   .     A
N758   N817    1.420   .     S
N759   N764    1.420   .     A
N759   N760    1.420   .     A
N759   H1151   1.140   .     S
N760   N761    1.420   .     A
N761   N762    1.420   .     A
N762   N765    1.420   .     A
N762   N821    1.420   .     S
N763   N768    1.420   .     A
N763   N764    1.420   .     A
N763   H1152   1.140   .     S
N764   N765    1.420   .     A
N765   N766    1.420   .     A
N766   N769    1.420   .     A
N766   N825    1.420   .     S
N767   N772    1.420   .     A
N767   N768    1.420   .     A
N768   N769    1.420   .     A
N769   N770    1.420   .     A
N770   N773    1.420   .     A
N770   N829    1.420   .     S
N771   N776    1.420   .     A
N771   N772    1.420   .     A
N772   N773    1.420   .     A
N773   N774    1.420   .     A
N774   N777    1.420   .     A
N774   N833    1.420   .     S
N775   N780    1.420   .     A
N775   N776    1.420   .     A
N776   N777    1.420   .     A
N777   N778    1.420   .     A
N778   N781    1.420   .     A
N778   N837    1.420   .     S
N779   N784    1.420   .     A
N779   N780    1.420   .     A
N780   N781    1.420   .     A
N781   N782    1.420   .     A
N782   N785    1.420   .     A
N782   N841    1.420   .     S
N783   N788    1.420   .     A
N783   N784    1.420   .     A
N784   N785    1.420   .     A
N785   N786    1.420   .     A
N786   N789    1.420   .     A
N786   N845    1.420   .     S
N787   N792    1.420   .     A
N787   N788    1.420   .     A
N788   N789    1.420   .     A
N789   N790    1.420   .     A
N790   N793    1.420   .     A
N790   N849    1.420   .     S
N791   N796    1.420   .     A
N791   N792    1.420   .     A
N791   H1153   1.140   .     S
N792   N793    1.420   .     A
N793   N794    1.420   .     A
N794   N797    1.420   .     A
N794   N853    1.420   .     S
N795   N800    1.420   .     A
N795   N796    1.420   .     A
N795   H1154   1.140   .     S
N796   N797    1.420   .     A
N797   N798    1.420   .     A
N798   N801    1.420   .     A
N798   N857    1.420   .     S
N799   N804    1.420   .     A
N799   N800    1.420   .     A
N799   H1155   1.140   .     S
N800   N801    1.420   .     A
N801   N802    1.420   .     A
N802   N805    1.420   .     A
N802   N861    1.420   .     S
N803   N807    1.420   .     A
N803   N804    1.420   .     A
N803   H1156   1.140   .     S
N804   N805    1.420   .     A
N805   N806    1.420   .     A
N806   N808    1.420   .     A
N806   N865    1.420   .     S
N807   N808    1.420   .     A
N807   H811    1.140   .     S
N808   H812    1.140   .     S
N813   N818    1.420   .     A
N813   N814    1.420   .     A
N814   N815    1.420   .     A
N814   H871    1.140   .     S
N815   N816    1.420   .     A
N815   H872    1.140   .     S
N816   N819    1.420   .     A
N816   N875    1.420   .     S
N817   N822    1.420   .     A
N817   N818    1.420   .     A
N818   N819    1.420   .     A
N819   N820    1.420   .     A
N820   N823    1.420   .     A
N820   N879    1.420   .     S
N821   N826    1.420   .     A
N821   N822    1.420   .     A
N822   N823    1.420   .     A
N823   N824    1.420   .     A
N824   N827    1.420   .     A
N824   N883    1.420   .     S
N825   N830    1.420   .     A
N825   N826    1.420   .     A
N826   N827    1.420   .     A
N827   N828    1.420   .     A
N828   N831    1.420   .     A
N828   N887    1.420   .     S
N829   N834    1.420   .     A
N829   N830    1.420   .     A
N830   N831    1.420   .     A
N831   N832    1.420   .     A
N832   N835    1.420   .     A
N832   N891    1.420   .     S
N833   N838    1.420   .     A
N833   N834    1.420   .     A
N834   N835    1.420   .     A
N835   N836    1.420   .     A
N836   N839    1.420   .     A
N836   N895    1.420   .     S
N837   N842    1.420   .     A
N837   N838    1.420   .     A
N838   N839    1.420   .     A
N839   N840    1.420   .     A
N840   N843    1.420   .     A
N840   N899    1.420   .     S
N841   N846    1.420   .     A
N841   N842    1.420   .     A
N842   N843    1.420   .     A
N843   N844    1.420   .     A
N844   N847    1.420   .     A
N844   N903    1.420   .     S
N845   N850    1.420   .     A
N845   N846    1.420   .     A
N846   N847    1.420   .     A
N847   N848    1.420   .     A
N848   N851    1.420   .     A
N848   N907    1.420   .     S
N849   N854    1.420   .     A
N849   N850    1.420   .     A
N850   N851    1.420   .     A
N851   N852    1.420   .     A
N852   N855    1.420   .     A
N852   N911    1.420   .     S
N853   N858    1.420   .     A
N853   N854    1.420   .     A
N854   N855    1.420   .     A
N855   N856    1.420   .     A
N856   N859    1.420   .     A
N856   N915    1.420   .     S
N857   N862    1.420   .     A
N857   N858    1.420   .     A
N858   N859    1.420   .     A
N859   N860    1.420   .     A
N860   N863    1.420   .     A
N860   N919    1.420   .     S
N861   N866    1.420   .     A
N861   N862    1.420   .     A
N862   N863    1.420   .     A
N863   N864    1.420   .     A
N864   N867    1.420   .     A
N864   N923    1.420   .     S
N865   N869    1.420   .     A
N865   N866    1.420   .     A
N866   N867    1.420   .     A
N867   N868    1.420   .     A
N868   N870    1.420   .     A
N868   N927    1.420   .     S
N869   N870    1.420   .     A
N869   H873    1.140   .     S
N870   H874    1.140   .     S
N875   N880    1.420   .     A
N875   N876    1.420   .     A
N876   N877    1.420   .     A
N876   H933    1.140   .     S
N877   N878    1.420   .     A
N877   H934    1.140   .     S
N878   N881    1.420   .     A
N878   N937    1.420   .     S
N879   N884    1.420   .     A
N879   N880    1.420   .     A
N880   N881    1.420   .     A
N881   N882    1.420   .     A
N882   N885    1.420   .     A
N882   N941    1.420   .     S
N883   N888    1.420   .     A
N883   N884    1.420   .     A
N884   N885    1.420   .     A
N885   N886    1.420   .     A
N886   N889    1.420   .     A
N886   N945    1.420   .     S
N887   N892    1.420   .     A
N887   N888    1.420   .     A
N888   N889    1.420   .     A
N889   N890    1.420   .     A
N890   N893    1.420   .     A
N890   N949    1.420   .     S
N891   N896    1.420   .     A
N891   N892    1.420   .     A
N892   N893    1.420   .     A
N893   N894    1.420   .     A
N894   N897    1.420   .     A
N894   N953    1.420   .     S
N895   N900    1.420   .     A
N895   N896    1.420   .     A
N896   N897    1.420   .     A
N897   N898    1.420   .     A
N898   N901    1.420   .     A
N898   N957    1.420   .     S
N899   N904    1.420   .     A
N899   N900    1.420   .     A
N900   N901    1.420   .     A
N901   N902    1.420   .     A
N902   N905    1.420   .     A
N902   N961    1.420   .     S
N903   N908    1.420   .     A
N903   N904    1.420   .     A
N904   N905    1.420   .     A
N905   N906    1.420   .     A
N906   N909    1.420   .     A
N906   N965    1.420   .     S
N907   N912    1.420   .     A
N907   N908    1.420   .     A
N908   N909    1.420   .     A
N909   N910    1.420   .     A
N910   N913    1.420   .     A
N910   N969    1.420   .     S
N911   N916    1.420   .     A
N911   N912    1.420   .     A
N912   N913    1.420   .     A
N913   N914    1.420   .     A
N914   N917    1.420   .     A
N914   N973    1.420   .     S
N915   N920    1.420   .     A
N915   N916    1.420   .     A
N916   N917    1.420   .     A
N917   N918    1.420   .     A
N918   N921    1.420   .     A
N918   N977    1.420   .     S
N919   N924    1.420   .     A
N919   N920    1.420   .     A
N920   N921    1.420   .     A
N921   N922    1.420   .     A
N922   N925    1.420   .     A
N922   N981    1.420   .     S
N923   N928    1.420   .     A
N923   N924    1.420   .     A
N924   N925    1.420   .     A
N925   N926    1.420   .     A
N926   N929    1.420   .     A
N926   N985    1.420   .     S
N927   N931    1.420   .     A
N927   N928    1.420   .     A
N928   N929    1.420   .     A
N929   N930    1.420   .     A
N930   N932    1.420   .     A
N930   N989    1.420   .     S
N931   N932    1.420   .     A
N931   H935    1.140   .     S
N932   H936    1.140   .     S
N937   N942    1.420   .     A
N937   N938    1.420   .     A
N938   N939    1.420   .     A
N938   H995    1.140   .     S
N939   N940    1.420   .     A
N939   H996    1.140   .     S
N940   N943    1.420   .     A
N940   N999    1.420   .     S
N941   N946    1.420   .     A
N941   N942    1.420   .     A
N942   N943    1.420   .     A
N943   N944    1.420   .     A
N944   N947    1.420   .     A
N944   N1003   1.420   .     S
N945   N950    1.420   .     A
N945   N946    1.420   .     A
N946   N947    1.420   .     A
N947   N948    1.420   .     A
N948   N951    1.420   .     A
N948   N1007   1.420   .     S
N949   N954    1.420   .     A
N949   N950    1.420   .     A
N950   N951    1.420   .     A
N951   N952    1.420   .     A
N952   N955    1.420   .     A
N952   N1011   1.420   .     S
N953   N958    1.420   .     A
N953   N954    1.420   .     A
N954   N955    1.420   .     A
N955   N956    1.420   .     A
N956   N959    1.420   .     A
N956   N1015   1.420   .     S
N957   N962    1.420   .     A
N957   N958    1.420   .     A
N958   N959    1.420   .     A
N959   N960    1.420   .     A
N960   N963    1.420   .     A
N960   N1019   1.420   .     S
N961   N966    1.420   .     A
N961   N962    1.420   .     A
N962   N963    1.420   .     A
N963   N964    1.420   .     A
N964   N967    1.420   .     A
N964   N1023   1.420   .     S
N965   N970    1.420   .     A
N965   N966    1.420   .     A
N966   N967    1.420   .     A
N967   N968    1.420   .     A
N968   N971    1.420   .     A
N968   N1027   1.420   .     S
N969   N974    1.420   .     A
N969   N970    1.420   .     A
N970   N971    1.420   .     A
N971   N972    1.420   .     A
N972   N975    1.420   .     A
N972   N1031   1.420   .     S
N973   N978    1.420   .     A
N973   N974    1.420   .     A
N974   N975    1.420   .     A
N975   N976    1.420   .     A
N976   N979    1.420   .     A
N976   N1035   1.420   .     S
N977   N982    1.420   .     A
N977   N978    1.420   .     A
N978   N979    1.420   .     A
N979   N980    1.420   .     A
N980   N983    1.420   .     A
N980   N1039   1.420   .     S
N981   N986    1.420   .     A
N981   N982    1.420   .     A
N982   N983    1.420   .     A
N983   N984    1.420   .     A
N984   N987    1.420   .     A
N984   N1043   1.420   .     S
N985   N990    1.420   .     A
N985   N986    1.420   .     A
N986   N987    1.420   .     A
N987   N988    1.420   .     A
N988   N991    1.420   .     A
N988   N1047   1.420   .     S
N989   N993    1.420   .     A
N989   N990    1.420   .     A
N990   N991    1.420   .     A
N991   N992    1.420   .     A
N992   N994    1.420   .     A
N992   N1051   1.420   .     S
N993   N994    1.420   .     A
N993   H997    1.140   .     S
N994   H998    1.140   .     S
N999   N1004   1.420   .     A
N999   N1000   1.420   .     A
N1000  N1001   1.420   .     A
N1000  H1057   1.140   .     S
N1001  N1002   1.420   .     A
N1001  H1058   1.140   .     S
N1002  N1005   1.420   .     A
N1002  N1      1.420   1_565 S
N1003  N1008   1.420   .     A
N1003  N1004   1.420   .     A
N1004  N1005   1.420   .     A
N1005  N1006   1.420   .     A
N1006  N1009   1.420   .     A
N1006  N5      1.420   1_565 S
N1007  N1012   1.420   .     A
N1007  N1008   1.420   .     A
N1008  N1009   1.420   .     A
N1009  N1010   1.420   .     A
N1010  N1013   1.420   .     A
N1010  N9      1.420   1_565 S
N1011  N1016   1.420   .     A
N1011  N1012   1.420   .     A
N1012  N1013   1.420   .     A
N1013  N1014   1.420   .     A
N1014  N1017   1.420   .     A
N1014  N13     1.420   1_565 S
N1015  N1020   1.420   .     A
N1015  N1016   1.420   .     A
N1016  N1017   1.420   .     A
N1017  N1018   1.420   .     A
N1018  N1021   1.420   .     A
N1018  N17     1.420   1_565 S
N1019  N1024   1.420   .     A
N1019  N1020   1.420   .     A
N1020  N1021   1.420   .     A
N1021  N1022   1.420   .     A
N1022  N1025   1.420   .     A
N1022  N21     1.420   1_565 S
N1023  N1028   1.420   .     A
N1023  N1024   1.420   .     A
N1024  N1025   1.420   .     A
N1025  N1026   1.420   .     A
N1026  N1029   1.420   .     A
N1026  N25     1.420   1_565 S
N1027  N1032   1.420   .     A
N1027  N1028   1.420   .     A
N1028  N1029   1.420   .     A
N1029  N1030   1.420   .     A
N1030  N1033   1.420   .     A
N1030  N29     1.420   1_565 S
N1031  N1036   1.420   .     A
N1031  N1032   1.420   .     A
N1032  N1033   1.420   .     A
N1033  N1034   1.420   .     A
N1034  N1037   1.420   .     A
N1034  N33     1.420   1_565 S
N1035  N1040   1.420   .     A
N1035  N1036   1.420   .     A
N1036  N1037   1.420   .     A
N1037  N1038   1.420   .     A
N1038  N1041   1.420   .     A
N1038  N37     1.420   1_565 S
N1039  N1044   1.420   .     A
N1039  N1040   1.420   .     A
N1040  N1041   1.420   .     A
N1041  N1042   1.420   .     A
N1042  N1045   1.420   .     A
N1042  N41     1.420   1_565 S
N1043  N1048   1.420   .     A
N1043  N1044   1.420   .     A
N1044  N1045   1.420   .     A
N1045  N1046   1.420   .     A
N1046  N1049   1.420   .     A
N1046  N45     1.420   1_565 S
N1047  N1052   1.420   .     A
N1047  N1048   1.420   .     A
N1048  N1049   1.420   .     A
N1049  N1050   1.420   .     A
N1050  N1053   1.420   .     A
N1050  N49     1.420   1_565 S
N1051  N1055   1.420   .     A
N1051  N1052   1.420   .     A
N1052  N1053   1.420   .     A
N1053  N1054   1.420   .     A
N1054  N1056   1.420   .     A
N1054  N53     1.420   1_565 S
N1055  N1056   1.420   .     A
N1055  H1059   1.140   .     S
N1056  H1060   1.140   .     S
