data_41111005
_audit_creation_date              2020-04-13
_audit_creation_method            'Materials Studio'
_symmetry_space_group_name_H-M    'P1'
_symmetry_Int_Tables_number       1
_symmetry_cell_setting            triclinic
loop_
_symmetry_equiv_pos_as_xyz
  x,y,z
_cell_length_a                    70.0000
_cell_length_b                    85.2169
_cell_length_c                    10.0000
_cell_angle_alpha                 90.0000
_cell_angle_beta                  90.0000
_cell_angle_gamma                 90.0000
loop_
_atom_site_label
_atom_site_type_symbol
_atom_site_fract_x
_atom_site_fract_y
_atom_site_fract_z
_atom_site_U_iso_or_equiv
_atom_site_adp_type
_atom_site_occupancy
N1     N     0.16112   0.00837   0.50000   0.00000  Uiso   1.00
N2     N     0.14354   0.01671   0.50000   0.00000  Uiso   1.00
N3     N     0.14354   0.03337   0.50000   0.00000  Uiso   1.00
N4     N     0.16112   0.04171   0.50000   0.00000  Uiso   1.00
N5     N     0.19626   0.00837   0.50000   0.00000  Uiso   1.00
N6     N     0.17869   0.01671   0.50000   0.00000  Uiso   1.00
N7     N     0.17869   0.03337   0.50000   0.00000  Uiso   1.00
N8     N     0.19626   0.04171   0.50000   0.00000  Uiso   1.00
N9     N     0.23140   0.00837   0.50000   0.00000  Uiso   1.00
N10    N     0.21383   0.01671   0.50000   0.00000  Uiso   1.00
N11    N     0.21383   0.03337   0.50000   0.00000  Uiso   1.00
N12    N     0.23140   0.04171   0.50000   0.00000  Uiso   1.00
N13    N     0.26654   0.00837   0.50000   0.00000  Uiso   1.00
N14    N     0.24897   0.01671   0.50000   0.00000  Uiso   1.00
N15    N     0.24897   0.03337   0.50000   0.00000  Uiso   1.00
N16    N     0.26654   0.04171   0.50000   0.00000  Uiso   1.00
N17    N     0.30169   0.00837   0.50000   0.00000  Uiso   1.00
N18    N     0.28412   0.01671   0.50000   0.00000  Uiso   1.00
N19    N     0.28412   0.03337   0.50000   0.00000  Uiso   1.00
N20    N     0.30169   0.04171   0.50000   0.00000  Uiso   1.00
N21    N     0.33683   0.00837   0.50000   0.00000  Uiso   1.00
N22    N     0.31926   0.01671   0.50000   0.00000  Uiso   1.00
N23    N     0.31926   0.03337   0.50000   0.00000  Uiso   1.00
N24    N     0.33683   0.04171   0.50000   0.00000  Uiso   1.00
N25    N     0.37197   0.00837   0.50000   0.00000  Uiso   1.00
N26    N     0.35440   0.01671   0.50000   0.00000  Uiso   1.00
N27    N     0.35440   0.03337   0.50000   0.00000  Uiso   1.00
N28    N     0.37197   0.04171   0.50000   0.00000  Uiso   1.00
N29    N     0.40712   0.00837   0.50000   0.00000  Uiso   1.00
N30    N     0.38954   0.01671   0.50000   0.00000  Uiso   1.00
N31    N     0.38954   0.03337   0.50000   0.00000  Uiso   1.00
N32    N     0.40712   0.04171   0.50000   0.00000  Uiso   1.00
N33    N     0.44226   0.00837   0.50000   0.00000  Uiso   1.00
N34    N     0.42469   0.01671   0.50000   0.00000  Uiso   1.00
N35    N     0.42469   0.03337   0.50000   0.00000  Uiso   1.00
N36    N     0.44226   0.04171   0.50000   0.00000  Uiso   1.00
N37    N     0.47740   0.00837   0.50000   0.00000  Uiso   1.00
N38    N     0.45983   0.01671   0.50000   0.00000  Uiso   1.00
N39    N     0.45983   0.03337   0.50000   0.00000  Uiso   1.00
N40    N     0.47740   0.04171   0.50000   0.00000  Uiso   1.00
N41    N     0.51254   0.00837   0.50000   0.00000  Uiso   1.00
N42    N     0.49497   0.01671   0.50000   0.00000  Uiso   1.00
N43    N     0.49497   0.03337   0.50000   0.00000  Uiso   1.00
N44    N     0.51254   0.04171   0.50000   0.00000  Uiso   1.00
N45    N     0.54769   0.00837   0.50000   0.00000  Uiso   1.00
N46    N     0.53012   0.01671   0.50000   0.00000  Uiso   1.00
N47    N     0.53012   0.03337   0.50000   0.00000  Uiso   1.00
N48    N     0.54769   0.04171   0.50000   0.00000  Uiso   1.00
N49    N     0.58283   0.00837   0.50000   0.00000  Uiso   1.00
N50    N     0.56526   0.01671   0.50000   0.00000  Uiso   1.00
N51    N     0.56526   0.03337   0.50000   0.00000  Uiso   1.00
N52    N     0.58283   0.04171   0.50000   0.00000  Uiso   1.00
N53    N     0.61797   0.00837   0.50000   0.00000  Uiso   1.00
N54    N     0.60040   0.01671   0.50000   0.00000  Uiso   1.00
N55    N     0.60040   0.03337   0.50000   0.00000  Uiso   1.00
N56    N     0.61797   0.04171   0.50000   0.00000  Uiso   1.00
N57    N     0.65312   0.00837   0.50000   0.00000  Uiso   1.00
N58    N     0.63554   0.01671   0.50000   0.00000  Uiso   1.00
N59    N     0.63554   0.03337   0.50000   0.00000  Uiso   1.00
N60    N     0.65312   0.04171   0.50000   0.00000  Uiso   1.00
N61    N     0.68826   0.00837   0.50000   0.00000  Uiso   1.00
N62    N     0.67069   0.01671   0.50000   0.00000  Uiso   1.00
N63    N     0.67069   0.03337   0.50000   0.00000  Uiso   1.00
N64    N     0.68826   0.04171   0.50000   0.00000  Uiso   1.00
N65    N     0.72340   0.00837   0.50000   0.00000  Uiso   1.00
N66    N     0.70583   0.01671   0.50000   0.00000  Uiso   1.00
N67    N     0.70583   0.03337   0.50000   0.00000  Uiso   1.00
N68    N     0.72340   0.04171   0.50000   0.00000  Uiso   1.00
N69    N     0.75854   0.00837   0.50000   0.00000  Uiso   1.00
N70    N     0.74097   0.01671   0.50000   0.00000  Uiso   1.00
N71    N     0.74097   0.03337   0.50000   0.00000  Uiso   1.00
N72    N     0.75854   0.04171   0.50000   0.00000  Uiso   1.00
N73    N     0.79369   0.00837   0.50000   0.00000  Uiso   1.00
N74    N     0.77612   0.01671   0.50000   0.00000  Uiso   1.00
N75    N     0.77612   0.03337   0.50000   0.00000  Uiso   1.00
N76    N     0.79369   0.04171   0.50000   0.00000  Uiso   1.00
N77    N     0.82883   0.00837   0.50000   0.00000  Uiso   1.00
N78    N     0.81126   0.01671   0.50000   0.00000  Uiso   1.00
N79    N     0.81126   0.03337   0.50000   0.00000  Uiso   1.00
N80    N     0.82883   0.04171   0.50000   0.00000  Uiso   1.00
N81    N     0.84640   0.01671   0.50000   0.00000  Uiso   1.00
N82    N     0.84640   0.03337   0.50000   0.00000  Uiso   1.00
H83    H     0.12944   0.01002   0.50000   0.00000  Uiso   1.00
H84    H     0.12944   0.04006   0.50000   0.00000  Uiso   1.00
H85    H     0.86051   0.01002   0.50000   0.00000  Uiso   1.00
H86    H     0.86051   0.04006   0.50000   0.00000  Uiso   1.00
N87    N     0.16112   0.05837   0.50000   0.00000  Uiso   1.00
N88    N     0.14354   0.06671   0.50000   0.00000  Uiso   1.00
N89    N     0.14354   0.08337   0.50000   0.00000  Uiso   1.00
N90    N     0.16112   0.09171   0.50000   0.00000  Uiso   1.00
N91    N     0.19626   0.05837   0.50000   0.00000  Uiso   1.00
N92    N     0.17869   0.06671   0.50000   0.00000  Uiso   1.00
N93    N     0.17869   0.08337   0.50000   0.00000  Uiso   1.00
N94    N     0.19626   0.09171   0.50000   0.00000  Uiso   1.00
N95    N     0.23140   0.05837   0.50000   0.00000  Uiso   1.00
N96    N     0.21383   0.06671   0.50000   0.00000  Uiso   1.00
N97    N     0.21383   0.08337   0.50000   0.00000  Uiso   1.00
N98    N     0.23140   0.09171   0.50000   0.00000  Uiso   1.00
N99    N     0.26654   0.05837   0.50000   0.00000  Uiso   1.00
N100   N     0.24897   0.06671   0.50000   0.00000  Uiso   1.00
N101   N     0.24897   0.08337   0.50000   0.00000  Uiso   1.00
N102   N     0.26654   0.09171   0.50000   0.00000  Uiso   1.00
N103   N     0.30169   0.05837   0.50000   0.00000  Uiso   1.00
N104   N     0.28412   0.06671   0.50000   0.00000  Uiso   1.00
N105   N     0.28412   0.08337   0.50000   0.00000  Uiso   1.00
N106   N     0.30169   0.09171   0.50000   0.00000  Uiso   1.00
N107   N     0.33683   0.05837   0.50000   0.00000  Uiso   1.00
N108   N     0.31926   0.06671   0.50000   0.00000  Uiso   1.00
N109   N     0.31926   0.08337   0.50000   0.00000  Uiso   1.00
N110   N     0.33683   0.09171   0.50000   0.00000  Uiso   1.00
N111   N     0.37197   0.05837   0.50000   0.00000  Uiso   1.00
N112   N     0.35440   0.06671   0.50000   0.00000  Uiso   1.00
N113   N     0.35440   0.08337   0.50000   0.00000  Uiso   1.00
N114   N     0.37197   0.09171   0.50000   0.00000  Uiso   1.00
N115   N     0.40712   0.05837   0.50000   0.00000  Uiso   1.00
N116   N     0.38954   0.06671   0.50000   0.00000  Uiso   1.00
N117   N     0.38954   0.08337   0.50000   0.00000  Uiso   1.00
N118   N     0.40712   0.09171   0.50000   0.00000  Uiso   1.00
N119   N     0.44226   0.05837   0.50000   0.00000  Uiso   1.00
N120   N     0.42469   0.06671   0.50000   0.00000  Uiso   1.00
N121   N     0.42469   0.08337   0.50000   0.00000  Uiso   1.00
N122   N     0.44226   0.09171   0.50000   0.00000  Uiso   1.00
N123   N     0.47740   0.05837   0.50000   0.00000  Uiso   1.00
N124   N     0.45983   0.06671   0.50000   0.00000  Uiso   1.00
N125   N     0.45983   0.08337   0.50000   0.00000  Uiso   1.00
N126   N     0.47740   0.09171   0.50000   0.00000  Uiso   1.00
N127   N     0.51254   0.05837   0.50000   0.00000  Uiso   1.00
N128   N     0.49497   0.06671   0.50000   0.00000  Uiso   1.00
N129   N     0.49497   0.08337   0.50000   0.00000  Uiso   1.00
N130   N     0.51254   0.09171   0.50000   0.00000  Uiso   1.00
N131   N     0.54769   0.05837   0.50000   0.00000  Uiso   1.00
N132   N     0.53012   0.06671   0.50000   0.00000  Uiso   1.00
N133   N     0.53012   0.08337   0.50000   0.00000  Uiso   1.00
N134   N     0.54769   0.09171   0.50000   0.00000  Uiso   1.00
N135   N     0.58283   0.05837   0.50000   0.00000  Uiso   1.00
N136   N     0.56526   0.06671   0.50000   0.00000  Uiso   1.00
N137   N     0.56526   0.08337   0.50000   0.00000  Uiso   1.00
N138   N     0.58283   0.09171   0.50000   0.00000  Uiso   1.00
N139   N     0.61797   0.05837   0.50000   0.00000  Uiso   1.00
N140   N     0.60040   0.06671   0.50000   0.00000  Uiso   1.00
N141   N     0.60040   0.08337   0.50000   0.00000  Uiso   1.00
N142   N     0.61797   0.09171   0.50000   0.00000  Uiso   1.00
N143   N     0.65312   0.05837   0.50000   0.00000  Uiso   1.00
N144   N     0.63554   0.06671   0.50000   0.00000  Uiso   1.00
N145   N     0.63554   0.08337   0.50000   0.00000  Uiso   1.00
N146   N     0.65312   0.09171   0.50000   0.00000  Uiso   1.00
N147   N     0.68826   0.05837   0.50000   0.00000  Uiso   1.00
N148   N     0.67069   0.06671   0.50000   0.00000  Uiso   1.00
N149   N     0.67069   0.08337   0.50000   0.00000  Uiso   1.00
N150   N     0.68826   0.09171   0.50000   0.00000  Uiso   1.00
N151   N     0.72340   0.05837   0.50000   0.00000  Uiso   1.00
N152   N     0.70583   0.06671   0.50000   0.00000  Uiso   1.00
N153   N     0.70583   0.08337   0.50000   0.00000  Uiso   1.00
N154   N     0.72340   0.09171   0.50000   0.00000  Uiso   1.00
N155   N     0.75854   0.05837   0.50000   0.00000  Uiso   1.00
N156   N     0.74097   0.06671   0.50000   0.00000  Uiso   1.00
N157   N     0.74097   0.08337   0.50000   0.00000  Uiso   1.00
N158   N     0.75854   0.09171   0.50000   0.00000  Uiso   1.00
N159   N     0.79369   0.05837   0.50000   0.00000  Uiso   1.00
N160   N     0.77612   0.06671   0.50000   0.00000  Uiso   1.00
N161   N     0.77612   0.08337   0.50000   0.00000  Uiso   1.00
N162   N     0.79369   0.09171   0.50000   0.00000  Uiso   1.00
N163   N     0.82883   0.05837   0.50000   0.00000  Uiso   1.00
N164   N     0.81126   0.06671   0.50000   0.00000  Uiso   1.00
N165   N     0.81126   0.08337   0.50000   0.00000  Uiso   1.00
N166   N     0.82883   0.09171   0.50000   0.00000  Uiso   1.00
N167   N     0.84640   0.06671   0.50000   0.00000  Uiso   1.00
N168   N     0.84640   0.08337   0.50000   0.00000  Uiso   1.00
H169   H     0.12944   0.06002   0.50000   0.00000  Uiso   1.00
H170   H     0.12944   0.09006   0.50000   0.00000  Uiso   1.00
H171   H     0.86051   0.06002   0.50000   0.00000  Uiso   1.00
H172   H     0.86051   0.09006   0.50000   0.00000  Uiso   1.00
N173   N     0.16112   0.10837   0.50000   0.00000  Uiso   1.00
N174   N     0.14354   0.11671   0.50000   0.00000  Uiso   1.00
N175   N     0.14354   0.13337   0.50000   0.00000  Uiso   1.00
N176   N     0.16112   0.14171   0.50000   0.00000  Uiso   1.00
N177   N     0.19626   0.10837   0.50000   0.00000  Uiso   1.00
N178   N     0.17869   0.11671   0.50000   0.00000  Uiso   1.00
N179   N     0.17869   0.13337   0.50000   0.00000  Uiso   1.00
N180   N     0.19626   0.14171   0.50000   0.00000  Uiso   1.00
N181   N     0.23140   0.10837   0.50000   0.00000  Uiso   1.00
N182   N     0.21383   0.11671   0.50000   0.00000  Uiso   1.00
N183   N     0.21383   0.13337   0.50000   0.00000  Uiso   1.00
N184   N     0.23140   0.14171   0.50000   0.00000  Uiso   1.00
N185   N     0.26654   0.10837   0.50000   0.00000  Uiso   1.00
N186   N     0.24897   0.11671   0.50000   0.00000  Uiso   1.00
N187   N     0.24897   0.13337   0.50000   0.00000  Uiso   1.00
N188   N     0.26654   0.14171   0.50000   0.00000  Uiso   1.00
N189   N     0.30169   0.10837   0.50000   0.00000  Uiso   1.00
N190   N     0.28412   0.11671   0.50000   0.00000  Uiso   1.00
N191   N     0.28412   0.13337   0.50000   0.00000  Uiso   1.00
N192   N     0.30169   0.14171   0.50000   0.00000  Uiso   1.00
N193   N     0.33683   0.10837   0.50000   0.00000  Uiso   1.00
N194   N     0.31926   0.11671   0.50000   0.00000  Uiso   1.00
N195   N     0.31926   0.13337   0.50000   0.00000  Uiso   1.00
N196   N     0.33683   0.14171   0.50000   0.00000  Uiso   1.00
N197   N     0.37197   0.10837   0.50000   0.00000  Uiso   1.00
N198   N     0.35440   0.11671   0.50000   0.00000  Uiso   1.00
N199   N     0.35440   0.13337   0.50000   0.00000  Uiso   1.00
N200   N     0.37197   0.14171   0.50000   0.00000  Uiso   1.00
N201   N     0.40712   0.10837   0.50000   0.00000  Uiso   1.00
N202   N     0.38954   0.11671   0.50000   0.00000  Uiso   1.00
N203   N     0.38954   0.13337   0.50000   0.00000  Uiso   1.00
N204   N     0.40712   0.14171   0.50000   0.00000  Uiso   1.00
N205   N     0.44226   0.10837   0.50000   0.00000  Uiso   1.00
N206   N     0.42469   0.11671   0.50000   0.00000  Uiso   1.00
N207   N     0.42469   0.13337   0.50000   0.00000  Uiso   1.00
N208   N     0.44226   0.14171   0.50000   0.00000  Uiso   1.00
N209   N     0.47740   0.10837   0.50000   0.00000  Uiso   1.00
N210   N     0.45983   0.11671   0.50000   0.00000  Uiso   1.00
N211   N     0.45983   0.13337   0.50000   0.00000  Uiso   1.00
N212   N     0.47740   0.14171   0.50000   0.00000  Uiso   1.00
N213   N     0.51254   0.10837   0.50000   0.00000  Uiso   1.00
N214   N     0.49497   0.11671   0.50000   0.00000  Uiso   1.00
N215   N     0.49497   0.13337   0.50000   0.00000  Uiso   1.00
N216   N     0.51254   0.14171   0.50000   0.00000  Uiso   1.00
N217   N     0.54769   0.10837   0.50000   0.00000  Uiso   1.00
N218   N     0.53012   0.11671   0.50000   0.00000  Uiso   1.00
N219   N     0.53012   0.13337   0.50000   0.00000  Uiso   1.00
N220   N     0.54769   0.14171   0.50000   0.00000  Uiso   1.00
N221   N     0.58283   0.10837   0.50000   0.00000  Uiso   1.00
N222   N     0.56526   0.11671   0.50000   0.00000  Uiso   1.00
N223   N     0.56526   0.13337   0.50000   0.00000  Uiso   1.00
N224   N     0.58283   0.14171   0.50000   0.00000  Uiso   1.00
N225   N     0.61797   0.10837   0.50000   0.00000  Uiso   1.00
N226   N     0.60040   0.11671   0.50000   0.00000  Uiso   1.00
N227   N     0.60040   0.13337   0.50000   0.00000  Uiso   1.00
N228   N     0.61797   0.14171   0.50000   0.00000  Uiso   1.00
N229   N     0.65312   0.10837   0.50000   0.00000  Uiso   1.00
N230   N     0.63554   0.11671   0.50000   0.00000  Uiso   1.00
N231   N     0.63554   0.13337   0.50000   0.00000  Uiso   1.00
N232   N     0.65312   0.14171   0.50000   0.00000  Uiso   1.00
N233   N     0.68826   0.10837   0.50000   0.00000  Uiso   1.00
N234   N     0.67069   0.11671   0.50000   0.00000  Uiso   1.00
N235   N     0.67069   0.13337   0.50000   0.00000  Uiso   1.00
N236   N     0.68826   0.14171   0.50000   0.00000  Uiso   1.00
N237   N     0.72340   0.10837   0.50000   0.00000  Uiso   1.00
N238   N     0.70583   0.11671   0.50000   0.00000  Uiso   1.00
N239   N     0.70583   0.13337   0.50000   0.00000  Uiso   1.00
N240   N     0.72340   0.14171   0.50000   0.00000  Uiso   1.00
N241   N     0.75854   0.10837   0.50000   0.00000  Uiso   1.00
N242   N     0.74097   0.11671   0.50000   0.00000  Uiso   1.00
N243   N     0.74097   0.13337   0.50000   0.00000  Uiso   1.00
N244   N     0.75854   0.14171   0.50000   0.00000  Uiso   1.00
N245   N     0.79369   0.10837   0.50000   0.00000  Uiso   1.00
N246   N     0.77612   0.11671   0.50000   0.00000  Uiso   1.00
N247   N     0.77612   0.13337   0.50000   0.00000  Uiso   1.00
N248   N     0.79369   0.14171   0.50000   0.00000  Uiso   1.00
N249   N     0.82883   0.10837   0.50000   0.00000  Uiso   1.00
N250   N     0.81126   0.11671   0.50000   0.00000  Uiso   1.00
N251   N     0.81126   0.13337   0.50000   0.00000  Uiso   1.00
N252   N     0.82883   0.14171   0.50000   0.00000  Uiso   1.00
N253   N     0.84640   0.11671   0.50000   0.00000  Uiso   1.00
N254   N     0.84640   0.13337   0.50000   0.00000  Uiso   1.00
H255   H     0.12944   0.11002   0.50000   0.00000  Uiso   1.00
H256   H     0.12944   0.14006   0.50000   0.00000  Uiso   1.00
H257   H     0.86051   0.11002   0.50000   0.00000  Uiso   1.00
H258   H     0.86051   0.14006   0.50000   0.00000  Uiso   1.00
N259   N     0.16112   0.15837   0.50000   0.00000  Uiso   1.00
N260   N     0.14354   0.16671   0.50000   0.00000  Uiso   1.00
N261   N     0.14354   0.18337   0.50000   0.00000  Uiso   1.00
N262   N     0.16112   0.19171   0.50000   0.00000  Uiso   1.00
N263   N     0.19626   0.15837   0.50000   0.00000  Uiso   1.00
N264   N     0.17869   0.16671   0.50000   0.00000  Uiso   1.00
N265   N     0.17869   0.18337   0.50000   0.00000  Uiso   1.00
N266   N     0.19626   0.19171   0.50000   0.00000  Uiso   1.00
N267   N     0.23140   0.15837   0.50000   0.00000  Uiso   1.00
N268   N     0.21383   0.16671   0.50000   0.00000  Uiso   1.00
N269   N     0.21383   0.18337   0.50000   0.00000  Uiso   1.00
N270   N     0.23140   0.19171   0.50000   0.00000  Uiso   1.00
N271   N     0.26654   0.15837   0.50000   0.00000  Uiso   1.00
N272   N     0.24897   0.16671   0.50000   0.00000  Uiso   1.00
N273   N     0.24897   0.18337   0.50000   0.00000  Uiso   1.00
N274   N     0.26654   0.19171   0.50000   0.00000  Uiso   1.00
N275   N     0.30169   0.15837   0.50000   0.00000  Uiso   1.00
N276   N     0.28412   0.16671   0.50000   0.00000  Uiso   1.00
N277   N     0.28412   0.18337   0.50000   0.00000  Uiso   1.00
N278   N     0.30169   0.19171   0.50000   0.00000  Uiso   1.00
N279   N     0.33683   0.15837   0.50000   0.00000  Uiso   1.00
N280   N     0.31926   0.16671   0.50000   0.00000  Uiso   1.00
N281   N     0.31926   0.18337   0.50000   0.00000  Uiso   1.00
N282   N     0.33683   0.19171   0.50000   0.00000  Uiso   1.00
N283   N     0.37197   0.15837   0.50000   0.00000  Uiso   1.00
N284   N     0.35440   0.16671   0.50000   0.00000  Uiso   1.00
N285   N     0.35440   0.18337   0.50000   0.00000  Uiso   1.00
N286   N     0.37197   0.19171   0.50000   0.00000  Uiso   1.00
N287   N     0.40712   0.15837   0.50000   0.00000  Uiso   1.00
N288   N     0.38954   0.16671   0.50000   0.00000  Uiso   1.00
N289   N     0.38954   0.18337   0.50000   0.00000  Uiso   1.00
N290   N     0.40712   0.19171   0.50000   0.00000  Uiso   1.00
N291   N     0.44226   0.15837   0.50000   0.00000  Uiso   1.00
N292   N     0.42469   0.16671   0.50000   0.00000  Uiso   1.00
N293   N     0.42469   0.18337   0.50000   0.00000  Uiso   1.00
N294   N     0.44226   0.19171   0.50000   0.00000  Uiso   1.00
N295   N     0.47740   0.15837   0.50000   0.00000  Uiso   1.00
N296   N     0.45983   0.16671   0.50000   0.00000  Uiso   1.00
N297   N     0.45983   0.18337   0.50000   0.00000  Uiso   1.00
N298   N     0.47740   0.19171   0.50000   0.00000  Uiso   1.00
N299   N     0.51254   0.15837   0.50000   0.00000  Uiso   1.00
N300   N     0.49497   0.16671   0.50000   0.00000  Uiso   1.00
N301   N     0.49497   0.18337   0.50000   0.00000  Uiso   1.00
N302   N     0.51254   0.19171   0.50000   0.00000  Uiso   1.00
N303   N     0.54769   0.15837   0.50000   0.00000  Uiso   1.00
N304   N     0.53012   0.16671   0.50000   0.00000  Uiso   1.00
N305   N     0.53012   0.18337   0.50000   0.00000  Uiso   1.00
N306   N     0.54769   0.19171   0.50000   0.00000  Uiso   1.00
N307   N     0.58283   0.15837   0.50000   0.00000  Uiso   1.00
N308   N     0.56526   0.16671   0.50000   0.00000  Uiso   1.00
N309   N     0.56526   0.18337   0.50000   0.00000  Uiso   1.00
N310   N     0.58283   0.19171   0.50000   0.00000  Uiso   1.00
N311   N     0.61797   0.15837   0.50000   0.00000  Uiso   1.00
N312   N     0.60040   0.16671   0.50000   0.00000  Uiso   1.00
N313   N     0.60040   0.18337   0.50000   0.00000  Uiso   1.00
N314   N     0.61797   0.19171   0.50000   0.00000  Uiso   1.00
N315   N     0.65312   0.15837   0.50000   0.00000  Uiso   1.00
N316   N     0.63554   0.16671   0.50000   0.00000  Uiso   1.00
N317   N     0.63554   0.18337   0.50000   0.00000  Uiso   1.00
N318   N     0.65312   0.19171   0.50000   0.00000  Uiso   1.00
N319   N     0.68826   0.15837   0.50000   0.00000  Uiso   1.00
N320   N     0.67069   0.16671   0.50000   0.00000  Uiso   1.00
N321   N     0.67069   0.18337   0.50000   0.00000  Uiso   1.00
N322   N     0.68826   0.19171   0.50000   0.00000  Uiso   1.00
N323   N     0.72340   0.15837   0.50000   0.00000  Uiso   1.00
N324   N     0.70583   0.16671   0.50000   0.00000  Uiso   1.00
N325   N     0.70583   0.18337   0.50000   0.00000  Uiso   1.00
N326   N     0.72340   0.19171   0.50000   0.00000  Uiso   1.00
N327   N     0.75854   0.15837   0.50000   0.00000  Uiso   1.00
N328   N     0.74097   0.16671   0.50000   0.00000  Uiso   1.00
N329   N     0.74097   0.18337   0.50000   0.00000  Uiso   1.00
N330   N     0.75854   0.19171   0.50000   0.00000  Uiso   1.00
N331   N     0.79369   0.15837   0.50000   0.00000  Uiso   1.00
N332   N     0.77612   0.16671   0.50000   0.00000  Uiso   1.00
N333   N     0.77612   0.18337   0.50000   0.00000  Uiso   1.00
N334   N     0.79369   0.19171   0.50000   0.00000  Uiso   1.00
N335   N     0.82883   0.15837   0.50000   0.00000  Uiso   1.00
N336   N     0.81126   0.16671   0.50000   0.00000  Uiso   1.00
N337   N     0.81126   0.18337   0.50000   0.00000  Uiso   1.00
N338   N     0.82883   0.19171   0.50000   0.00000  Uiso   1.00
N339   N     0.84640   0.16671   0.50000   0.00000  Uiso   1.00
N340   N     0.84640   0.18337   0.50000   0.00000  Uiso   1.00
H341   H     0.12944   0.16002   0.50000   0.00000  Uiso   1.00
H342   H     0.12944   0.19006   0.50000   0.00000  Uiso   1.00
H343   H     0.86051   0.16002   0.50000   0.00000  Uiso   1.00
H344   H     0.86051   0.19006   0.50000   0.00000  Uiso   1.00
N345   N     0.16112   0.20837   0.50000   0.00000  Uiso   1.00
N346   N     0.14354   0.21671   0.50000   0.00000  Uiso   1.00
N347   N     0.14354   0.23337   0.50000   0.00000  Uiso   1.00
N348   N     0.16112   0.24171   0.50000   0.00000  Uiso   1.00
N349   N     0.19626   0.20837   0.50000   0.00000  Uiso   1.00
N350   N     0.17869   0.21671   0.50000   0.00000  Uiso   1.00
N351   N     0.17869   0.23337   0.50000   0.00000  Uiso   1.00
N352   N     0.19626   0.24171   0.50000   0.00000  Uiso   1.00
N353   N     0.23140   0.20837   0.50000   0.00000  Uiso   1.00
N354   N     0.21383   0.21671   0.50000   0.00000  Uiso   1.00
N355   N     0.21383   0.23337   0.50000   0.00000  Uiso   1.00
N356   N     0.23140   0.24171   0.50000   0.00000  Uiso   1.00
N357   N     0.26654   0.20837   0.50000   0.00000  Uiso   1.00
N358   N     0.24897   0.21671   0.50000   0.00000  Uiso   1.00
N359   N     0.24897   0.23337   0.50000   0.00000  Uiso   1.00
N360   N     0.26654   0.24171   0.50000   0.00000  Uiso   1.00
N361   N     0.30169   0.20837   0.50000   0.00000  Uiso   1.00
N362   N     0.28412   0.21671   0.50000   0.00000  Uiso   1.00
N363   N     0.28412   0.23337   0.50000   0.00000  Uiso   1.00
N364   N     0.30169   0.24171   0.50000   0.00000  Uiso   1.00
N365   N     0.33683   0.20837   0.50000   0.00000  Uiso   1.00
N366   N     0.31926   0.21671   0.50000   0.00000  Uiso   1.00
N367   N     0.31926   0.23337   0.50000   0.00000  Uiso   1.00
N368   N     0.33683   0.24171   0.50000   0.00000  Uiso   1.00
N369   N     0.37197   0.20837   0.50000   0.00000  Uiso   1.00
N370   N     0.35440   0.21671   0.50000   0.00000  Uiso   1.00
N371   N     0.35440   0.23337   0.50000   0.00000  Uiso   1.00
N372   N     0.37197   0.24171   0.50000   0.00000  Uiso   1.00
N373   N     0.40712   0.20837   0.50000   0.00000  Uiso   1.00
N374   N     0.38954   0.21671   0.50000   0.00000  Uiso   1.00
N375   N     0.38954   0.23337   0.50000   0.00000  Uiso   1.00
N376   N     0.40712   0.24171   0.50000   0.00000  Uiso   1.00
N377   N     0.44226   0.20837   0.50000   0.00000  Uiso   1.00
N378   N     0.42469   0.21671   0.50000   0.00000  Uiso   1.00
N379   N     0.42469   0.23337   0.50000   0.00000  Uiso   1.00
N380   N     0.44226   0.24171   0.50000   0.00000  Uiso   1.00
N381   N     0.47740   0.20837   0.50000   0.00000  Uiso   1.00
N382   N     0.45983   0.21671   0.50000   0.00000  Uiso   1.00
N383   N     0.45983   0.23337   0.50000   0.00000  Uiso   1.00
N384   N     0.47740   0.24171   0.50000   0.00000  Uiso   1.00
N385   N     0.51254   0.20837   0.50000   0.00000  Uiso   1.00
N386   N     0.49497   0.21671   0.50000   0.00000  Uiso   1.00
N387   N     0.49497   0.23337   0.50000   0.00000  Uiso   1.00
N388   N     0.51254   0.24171   0.50000   0.00000  Uiso   1.00
N389   N     0.54769   0.20837   0.50000   0.00000  Uiso   1.00
N390   N     0.53012   0.21671   0.50000   0.00000  Uiso   1.00
N391   N     0.53012   0.23337   0.50000   0.00000  Uiso   1.00
N392   N     0.54769   0.24171   0.50000   0.00000  Uiso   1.00
N393   N     0.58283   0.20837   0.50000   0.00000  Uiso   1.00
N394   N     0.56526   0.21671   0.50000   0.00000  Uiso   1.00
N395   N     0.56526   0.23337   0.50000   0.00000  Uiso   1.00
N396   N     0.58283   0.24171   0.50000   0.00000  Uiso   1.00
N397   N     0.61797   0.20837   0.50000   0.00000  Uiso   1.00
N398   N     0.60040   0.21671   0.50000   0.00000  Uiso   1.00
N399   N     0.60040   0.23337   0.50000   0.00000  Uiso   1.00
N400   N     0.61797   0.24171   0.50000   0.00000  Uiso   1.00
N401   N     0.65312   0.20837   0.50000   0.00000  Uiso   1.00
N402   N     0.63554   0.21671   0.50000   0.00000  Uiso   1.00
N403   N     0.63554   0.23337   0.50000   0.00000  Uiso   1.00
N404   N     0.65312   0.24171   0.50000   0.00000  Uiso   1.00
N405   N     0.68826   0.20837   0.50000   0.00000  Uiso   1.00
N406   N     0.67069   0.21671   0.50000   0.00000  Uiso   1.00
N407   N     0.67069   0.23337   0.50000   0.00000  Uiso   1.00
N408   N     0.68826   0.24171   0.50000   0.00000  Uiso   1.00
N409   N     0.72340   0.20837   0.50000   0.00000  Uiso   1.00
N410   N     0.70583   0.21671   0.50000   0.00000  Uiso   1.00
N411   N     0.70583   0.23337   0.50000   0.00000  Uiso   1.00
N412   N     0.72340   0.24171   0.50000   0.00000  Uiso   1.00
N413   N     0.75854   0.20837   0.50000   0.00000  Uiso   1.00
N414   N     0.74097   0.21671   0.50000   0.00000  Uiso   1.00
N415   N     0.74097   0.23337   0.50000   0.00000  Uiso   1.00
N416   N     0.75854   0.24171   0.50000   0.00000  Uiso   1.00
N417   N     0.79369   0.20837   0.50000   0.00000  Uiso   1.00
N418   N     0.77612   0.21671   0.50000   0.00000  Uiso   1.00
N419   N     0.77612   0.23337   0.50000   0.00000  Uiso   1.00
N420   N     0.79369   0.24171   0.50000   0.00000  Uiso   1.00
N421   N     0.82883   0.20837   0.50000   0.00000  Uiso   1.00
N422   N     0.81126   0.21671   0.50000   0.00000  Uiso   1.00
N423   N     0.81126   0.23337   0.50000   0.00000  Uiso   1.00
N424   N     0.82883   0.24171   0.50000   0.00000  Uiso   1.00
N425   N     0.84640   0.21671   0.50000   0.00000  Uiso   1.00
N426   N     0.84640   0.23337   0.50000   0.00000  Uiso   1.00
H427   H     0.12944   0.21002   0.50000   0.00000  Uiso   1.00
H428   H     0.12944   0.24006   0.50000   0.00000  Uiso   1.00
H429   H     0.86051   0.21002   0.50000   0.00000  Uiso   1.00
H430   H     0.86051   0.24006   0.50000   0.00000  Uiso   1.00
C431   C     0.40712   0.25837   0.50000   0.00000  Uiso   1.00
C432   C     0.40712   0.29171   0.50000   0.00000  Uiso   1.00
C433   C     0.44226   0.25837   0.50000   0.00000  Uiso   1.00
C434   C     0.42469   0.26671   0.50000   0.00000  Uiso   1.00
C435   C     0.42469   0.28337   0.50000   0.00000  Uiso   1.00
C436   C     0.44226   0.29171   0.50000   0.00000  Uiso   1.00
C437   C     0.47740   0.25837   0.50000   0.00000  Uiso   1.00
C438   C     0.45983   0.26671   0.50000   0.00000  Uiso   1.00
C439   C     0.45983   0.28337   0.50000   0.00000  Uiso   1.00
C440   C     0.47740   0.29171   0.50000   0.00000  Uiso   1.00
C441   C     0.51254   0.25837   0.50000   0.00000  Uiso   1.00
C442   C     0.49497   0.26671   0.50000   0.00000  Uiso   1.00
C443   C     0.49497   0.28337   0.50000   0.00000  Uiso   1.00
C444   C     0.51254   0.29171   0.50000   0.00000  Uiso   1.00
C445   C     0.54769   0.25837   0.50000   0.00000  Uiso   1.00
C446   C     0.53012   0.26671   0.50000   0.00000  Uiso   1.00
C447   C     0.53012   0.28337   0.50000   0.00000  Uiso   1.00
C448   C     0.54769   0.29171   0.50000   0.00000  Uiso   1.00
C449   C     0.58283   0.25837   0.50000   0.00000  Uiso   1.00
C450   C     0.56526   0.26671   0.50000   0.00000  Uiso   1.00
C451   C     0.56526   0.28337   0.50000   0.00000  Uiso   1.00
C452   C     0.58283   0.29171   0.50000   0.00000  Uiso   1.00
C453   C     0.40712   0.30837   0.50000   0.00000  Uiso   1.00
C454   C     0.40712   0.34171   0.50000   0.00000  Uiso   1.00
C455   C     0.44226   0.30837   0.50000   0.00000  Uiso   1.00
C456   C     0.42469   0.31671   0.50000   0.00000  Uiso   1.00
C457   C     0.42469   0.33337   0.50000   0.00000  Uiso   1.00
C458   C     0.44226   0.34171   0.50000   0.00000  Uiso   1.00
C459   C     0.47740   0.30837   0.50000   0.00000  Uiso   1.00
C460   C     0.45983   0.31671   0.50000   0.00000  Uiso   1.00
C461   C     0.45983   0.33337   0.50000   0.00000  Uiso   1.00
C462   C     0.47740   0.34171   0.50000   0.00000  Uiso   1.00
C463   C     0.51254   0.30837   0.50000   0.00000  Uiso   1.00
C464   C     0.49497   0.31671   0.50000   0.00000  Uiso   1.00
C465   C     0.49497   0.33337   0.50000   0.00000  Uiso   1.00
C466   C     0.51254   0.34171   0.50000   0.00000  Uiso   1.00
C467   C     0.54769   0.30837   0.50000   0.00000  Uiso   1.00
C468   C     0.53012   0.31671   0.50000   0.00000  Uiso   1.00
C469   C     0.53012   0.33337   0.50000   0.00000  Uiso   1.00
C470   C     0.54769   0.34171   0.50000   0.00000  Uiso   1.00
C471   C     0.58283   0.30837   0.50000   0.00000  Uiso   1.00
C472   C     0.56526   0.31671   0.50000   0.00000  Uiso   1.00
C473   C     0.56526   0.33337   0.50000   0.00000  Uiso   1.00
C474   C     0.58283   0.34171   0.50000   0.00000  Uiso   1.00
C475   C     0.40712   0.35837   0.50000   0.00000  Uiso   1.00
C476   C     0.40712   0.39171   0.50000   0.00000  Uiso   1.00
C477   C     0.44226   0.35837   0.50000   0.00000  Uiso   1.00
C478   C     0.42469   0.36671   0.50000   0.00000  Uiso   1.00
C479   C     0.42469   0.38337   0.50000   0.00000  Uiso   1.00
C480   C     0.44226   0.39171   0.50000   0.00000  Uiso   1.00
C481   C     0.47740   0.35837   0.50000   0.00000  Uiso   1.00
C482   C     0.45983   0.36671   0.50000   0.00000  Uiso   1.00
C483   C     0.45983   0.38337   0.50000   0.00000  Uiso   1.00
C484   C     0.47740   0.39171   0.50000   0.00000  Uiso   1.00
C485   C     0.51254   0.35837   0.50000   0.00000  Uiso   1.00
C486   C     0.49497   0.36671   0.50000   0.00000  Uiso   1.00
C487   C     0.49497   0.38337   0.50000   0.00000  Uiso   1.00
C488   C     0.51254   0.39171   0.50000   0.00000  Uiso   1.00
C489   C     0.54769   0.35837   0.50000   0.00000  Uiso   1.00
C490   C     0.53012   0.36671   0.50000   0.00000  Uiso   1.00
C491   C     0.53012   0.38337   0.50000   0.00000  Uiso   1.00
C492   C     0.54769   0.39171   0.50000   0.00000  Uiso   1.00
C493   C     0.58283   0.35837   0.50000   0.00000  Uiso   1.00
C494   C     0.56526   0.36671   0.50000   0.00000  Uiso   1.00
C495   C     0.56526   0.38337   0.50000   0.00000  Uiso   1.00
C496   C     0.58283   0.39171   0.50000   0.00000  Uiso   1.00
C497   C     0.40712   0.40837   0.50000   0.00000  Uiso   1.00
C498   C     0.40712   0.44171   0.50000   0.00000  Uiso   1.00
C499   C     0.44226   0.40837   0.50000   0.00000  Uiso   1.00
C500   C     0.42469   0.41671   0.50000   0.00000  Uiso   1.00
C501   C     0.42469   0.43337   0.50000   0.00000  Uiso   1.00
C502   C     0.44226   0.44171   0.50000   0.00000  Uiso   1.00
C503   C     0.47740   0.40837   0.50000   0.00000  Uiso   1.00
C504   C     0.45983   0.41671   0.50000   0.00000  Uiso   1.00
C505   C     0.45983   0.43337   0.50000   0.00000  Uiso   1.00
C506   C     0.47740   0.44171   0.50000   0.00000  Uiso   1.00
C507   C     0.51254   0.40837   0.50000   0.00000  Uiso   1.00
C508   C     0.49497   0.41671   0.50000   0.00000  Uiso   1.00
C509   C     0.49497   0.43337   0.50000   0.00000  Uiso   1.00
C510   C     0.51254   0.44171   0.50000   0.00000  Uiso   1.00
C511   C     0.54769   0.40837   0.50000   0.00000  Uiso   1.00
C512   C     0.53012   0.41671   0.50000   0.00000  Uiso   1.00
C513   C     0.53012   0.43337   0.50000   0.00000  Uiso   1.00
C514   C     0.54769   0.44171   0.50000   0.00000  Uiso   1.00
C515   C     0.58283   0.40837   0.50000   0.00000  Uiso   1.00
C516   C     0.56526   0.41671   0.50000   0.00000  Uiso   1.00
C517   C     0.56526   0.43337   0.50000   0.00000  Uiso   1.00
C518   C     0.58283   0.44171   0.50000   0.00000  Uiso   1.00
C519   C     0.40712   0.45837   0.50000   0.00000  Uiso   1.00
C520   C     0.40712   0.49171   0.50000   0.00000  Uiso   1.00
C521   C     0.44226   0.45837   0.50000   0.00000  Uiso   1.00
C522   C     0.42469   0.46671   0.50000   0.00000  Uiso   1.00
C523   C     0.42469   0.48337   0.50000   0.00000  Uiso   1.00
C524   C     0.44226   0.49171   0.50000   0.00000  Uiso   1.00
C525   C     0.47740   0.45837   0.50000   0.00000  Uiso   1.00
C526   C     0.45983   0.46671   0.50000   0.00000  Uiso   1.00
C527   C     0.45983   0.48337   0.50000   0.00000  Uiso   1.00
C528   C     0.47740   0.49171   0.50000   0.00000  Uiso   1.00
C529   C     0.51254   0.45837   0.50000   0.00000  Uiso   1.00
C530   C     0.49497   0.46671   0.50000   0.00000  Uiso   1.00
C531   C     0.49497   0.48337   0.50000   0.00000  Uiso   1.00
C532   C     0.51254   0.49171   0.50000   0.00000  Uiso   1.00
C533   C     0.54769   0.45837   0.50000   0.00000  Uiso   1.00
C534   C     0.53012   0.46671   0.50000   0.00000  Uiso   1.00
C535   C     0.53012   0.48337   0.50000   0.00000  Uiso   1.00
C536   C     0.54769   0.49171   0.50000   0.00000  Uiso   1.00
C537   C     0.58283   0.45837   0.50000   0.00000  Uiso   1.00
C538   C     0.56526   0.46671   0.50000   0.00000  Uiso   1.00
C539   C     0.56526   0.48337   0.50000   0.00000  Uiso   1.00
C540   C     0.58283   0.49171   0.50000   0.00000  Uiso   1.00
C541   C     0.40712   0.50837   0.50000   0.00000  Uiso   1.00
C542   C     0.40712   0.54171   0.50000   0.00000  Uiso   1.00
C543   C     0.44226   0.50837   0.50000   0.00000  Uiso   1.00
C544   C     0.42469   0.51671   0.50000   0.00000  Uiso   1.00
C545   C     0.42469   0.53337   0.50000   0.00000  Uiso   1.00
C546   C     0.44226   0.54171   0.50000   0.00000  Uiso   1.00
C547   C     0.47740   0.50837   0.50000   0.00000  Uiso   1.00
C548   C     0.45983   0.51671   0.50000   0.00000  Uiso   1.00
C549   C     0.45983   0.53337   0.50000   0.00000  Uiso   1.00
C550   C     0.47740   0.54171   0.50000   0.00000  Uiso   1.00
C551   C     0.51254   0.50837   0.50000   0.00000  Uiso   1.00
C552   C     0.49497   0.51671   0.50000   0.00000  Uiso   1.00
C553   C     0.49497   0.53337   0.50000   0.00000  Uiso   1.00
C554   C     0.51254   0.54171   0.50000   0.00000  Uiso   1.00
C555   C     0.54769   0.50837   0.50000   0.00000  Uiso   1.00
C556   C     0.53012   0.51671   0.50000   0.00000  Uiso   1.00
C557   C     0.53012   0.53337   0.50000   0.00000  Uiso   1.00
C558   C     0.54769   0.54171   0.50000   0.00000  Uiso   1.00
C559   C     0.58283   0.50837   0.50000   0.00000  Uiso   1.00
C560   C     0.56526   0.51671   0.50000   0.00000  Uiso   1.00
C561   C     0.56526   0.53337   0.50000   0.00000  Uiso   1.00
C562   C     0.58283   0.54171   0.50000   0.00000  Uiso   1.00
C563   C     0.40712   0.55837   0.50000   0.00000  Uiso   1.00
C564   C     0.40712   0.59171   0.50000   0.00000  Uiso   1.00
C565   C     0.44226   0.55837   0.50000   0.00000  Uiso   1.00
C566   C     0.42469   0.56671   0.50000   0.00000  Uiso   1.00
C567   C     0.42469   0.58337   0.50000   0.00000  Uiso   1.00
C568   C     0.44226   0.59171   0.50000   0.00000  Uiso   1.00
C569   C     0.47740   0.55837   0.50000   0.00000  Uiso   1.00
C570   C     0.45983   0.56671   0.50000   0.00000  Uiso   1.00
C571   C     0.45983   0.58337   0.50000   0.00000  Uiso   1.00
C572   C     0.47740   0.59171   0.50000   0.00000  Uiso   1.00
C573   C     0.51254   0.55837   0.50000   0.00000  Uiso   1.00
C574   C     0.49497   0.56671   0.50000   0.00000  Uiso   1.00
C575   C     0.49497   0.58337   0.50000   0.00000  Uiso   1.00
C576   C     0.51254   0.59171   0.50000   0.00000  Uiso   1.00
C577   C     0.54769   0.55837   0.50000   0.00000  Uiso   1.00
C578   C     0.53012   0.56671   0.50000   0.00000  Uiso   1.00
C579   C     0.53012   0.58337   0.50000   0.00000  Uiso   1.00
C580   C     0.54769   0.59171   0.50000   0.00000  Uiso   1.00
C581   C     0.58283   0.55837   0.50000   0.00000  Uiso   1.00
C582   C     0.56526   0.56671   0.50000   0.00000  Uiso   1.00
C583   C     0.56526   0.58337   0.50000   0.00000  Uiso   1.00
C584   C     0.58283   0.59171   0.50000   0.00000  Uiso   1.00
C585   C     0.40712   0.60837   0.50000   0.00000  Uiso   1.00
C586   C     0.40712   0.64171   0.50000   0.00000  Uiso   1.00
C587   C     0.44226   0.60837   0.50000   0.00000  Uiso   1.00
C588   C     0.42469   0.61671   0.50000   0.00000  Uiso   1.00
C589   C     0.42469   0.63337   0.50000   0.00000  Uiso   1.00
C590   C     0.44226   0.64171   0.50000   0.00000  Uiso   1.00
C591   C     0.47740   0.60837   0.50000   0.00000  Uiso   1.00
C592   C     0.45983   0.61671   0.50000   0.00000  Uiso   1.00
C593   C     0.45983   0.63337   0.50000   0.00000  Uiso   1.00
C594   C     0.47740   0.64171   0.50000   0.00000  Uiso   1.00
C595   C     0.51254   0.60837   0.50000   0.00000  Uiso   1.00
C596   C     0.49497   0.61671   0.50000   0.00000  Uiso   1.00
C597   C     0.49497   0.63337   0.50000   0.00000  Uiso   1.00
C598   C     0.51254   0.64171   0.50000   0.00000  Uiso   1.00
C599   C     0.54769   0.60837   0.50000   0.00000  Uiso   1.00
C600   C     0.53012   0.61671   0.50000   0.00000  Uiso   1.00
C601   C     0.53012   0.63337   0.50000   0.00000  Uiso   1.00
C602   C     0.54769   0.64171   0.50000   0.00000  Uiso   1.00
C603   C     0.58283   0.60837   0.50000   0.00000  Uiso   1.00
C604   C     0.56526   0.61671   0.50000   0.00000  Uiso   1.00
C605   C     0.56526   0.63337   0.50000   0.00000  Uiso   1.00
C606   C     0.58283   0.64171   0.50000   0.00000  Uiso   1.00
C607   C     0.40712   0.65837   0.50000   0.00000  Uiso   1.00
C608   C     0.40712   0.69171   0.50000   0.00000  Uiso   1.00
C609   C     0.44226   0.65837   0.50000   0.00000  Uiso   1.00
C610   C     0.42469   0.66671   0.50000   0.00000  Uiso   1.00
C611   C     0.42469   0.68337   0.50000   0.00000  Uiso   1.00
C612   C     0.44226   0.69171   0.50000   0.00000  Uiso   1.00
C613   C     0.47740   0.65837   0.50000   0.00000  Uiso   1.00
C614   C     0.45983   0.66671   0.50000   0.00000  Uiso   1.00
C615   C     0.45983   0.68337   0.50000   0.00000  Uiso   1.00
C616   C     0.47740   0.69171   0.50000   0.00000  Uiso   1.00
C617   C     0.51254   0.65837   0.50000   0.00000  Uiso   1.00
C618   C     0.49497   0.66671   0.50000   0.00000  Uiso   1.00
C619   C     0.49497   0.68337   0.50000   0.00000  Uiso   1.00
C620   C     0.51254   0.69171   0.50000   0.00000  Uiso   1.00
C621   C     0.54769   0.65837   0.50000   0.00000  Uiso   1.00
C622   C     0.53012   0.66671   0.50000   0.00000  Uiso   1.00
C623   C     0.53012   0.68337   0.50000   0.00000  Uiso   1.00
C624   C     0.54769   0.69171   0.50000   0.00000  Uiso   1.00
C625   C     0.58283   0.65837   0.50000   0.00000  Uiso   1.00
C626   C     0.56526   0.66671   0.50000   0.00000  Uiso   1.00
C627   C     0.56526   0.68337   0.50000   0.00000  Uiso   1.00
C628   C     0.58283   0.69171   0.50000   0.00000  Uiso   1.00
C629   C     0.40712   0.70837   0.50000   0.00000  Uiso   1.00
C630   C     0.40712   0.74171   0.50000   0.00000  Uiso   1.00
C631   C     0.44226   0.70837   0.50000   0.00000  Uiso   1.00
C632   C     0.42469   0.71671   0.50000   0.00000  Uiso   1.00
C633   C     0.42469   0.73337   0.50000   0.00000  Uiso   1.00
C634   C     0.44226   0.74171   0.50000   0.00000  Uiso   1.00
C635   C     0.47740   0.70837   0.50000   0.00000  Uiso   1.00
C636   C     0.45983   0.71671   0.50000   0.00000  Uiso   1.00
C637   C     0.45983   0.73337   0.50000   0.00000  Uiso   1.00
C638   C     0.47740   0.74171   0.50000   0.00000  Uiso   1.00
C639   C     0.51254   0.70837   0.50000   0.00000  Uiso   1.00
C640   C     0.49497   0.71671   0.50000   0.00000  Uiso   1.00
C641   C     0.49497   0.73337   0.50000   0.00000  Uiso   1.00
C642   C     0.51254   0.74171   0.50000   0.00000  Uiso   1.00
C643   C     0.54769   0.70837   0.50000   0.00000  Uiso   1.00
C644   C     0.53012   0.71671   0.50000   0.00000  Uiso   1.00
C645   C     0.53012   0.73337   0.50000   0.00000  Uiso   1.00
C646   C     0.54769   0.74171   0.50000   0.00000  Uiso   1.00
C647   C     0.58283   0.70837   0.50000   0.00000  Uiso   1.00
C648   C     0.56526   0.71671   0.50000   0.00000  Uiso   1.00
C649   C     0.56526   0.73337   0.50000   0.00000  Uiso   1.00
C650   C     0.58283   0.74171   0.50000   0.00000  Uiso   1.00
N651   N     0.16112   0.75837   0.50000   0.00000  Uiso   1.00
N652   N     0.14354   0.76671   0.50000   0.00000  Uiso   1.00
N653   N     0.14354   0.78337   0.50000   0.00000  Uiso   1.00
N654   N     0.16112   0.79171   0.50000   0.00000  Uiso   1.00
N655   N     0.19626   0.75837   0.50000   0.00000  Uiso   1.00
N656   N     0.17869   0.76671   0.50000   0.00000  Uiso   1.00
N657   N     0.17869   0.78337   0.50000   0.00000  Uiso   1.00
N658   N     0.19626   0.79171   0.50000   0.00000  Uiso   1.00
N659   N     0.23140   0.75837   0.50000   0.00000  Uiso   1.00
N660   N     0.21383   0.76671   0.50000   0.00000  Uiso   1.00
N661   N     0.21383   0.78337   0.50000   0.00000  Uiso   1.00
N662   N     0.23140   0.79171   0.50000   0.00000  Uiso   1.00
N663   N     0.26654   0.75837   0.50000   0.00000  Uiso   1.00
N664   N     0.24897   0.76671   0.50000   0.00000  Uiso   1.00
N665   N     0.24897   0.78337   0.50000   0.00000  Uiso   1.00
N666   N     0.26654   0.79171   0.50000   0.00000  Uiso   1.00
N667   N     0.30169   0.75837   0.50000   0.00000  Uiso   1.00
N668   N     0.28412   0.76671   0.50000   0.00000  Uiso   1.00
N669   N     0.28412   0.78337   0.50000   0.00000  Uiso   1.00
N670   N     0.30169   0.79171   0.50000   0.00000  Uiso   1.00
N671   N     0.33683   0.75837   0.50000   0.00000  Uiso   1.00
N672   N     0.31926   0.76671   0.50000   0.00000  Uiso   1.00
N673   N     0.31926   0.78337   0.50000   0.00000  Uiso   1.00
N674   N     0.33683   0.79171   0.50000   0.00000  Uiso   1.00
N675   N     0.37197   0.75837   0.50000   0.00000  Uiso   1.00
N676   N     0.35440   0.76671   0.50000   0.00000  Uiso   1.00
N677   N     0.35440   0.78337   0.50000   0.00000  Uiso   1.00
N678   N     0.37197   0.79171   0.50000   0.00000  Uiso   1.00
N679   N     0.40712   0.75837   0.50000   0.00000  Uiso   1.00
N680   N     0.38954   0.76671   0.50000   0.00000  Uiso   1.00
N681   N     0.38954   0.78337   0.50000   0.00000  Uiso   1.00
N682   N     0.40712   0.79171   0.50000   0.00000  Uiso   1.00
N683   N     0.44226   0.75837   0.50000   0.00000  Uiso   1.00
N684   N     0.42469   0.76671   0.50000   0.00000  Uiso   1.00
N685   N     0.42469   0.78337   0.50000   0.00000  Uiso   1.00
N686   N     0.44226   0.79171   0.50000   0.00000  Uiso   1.00
N687   N     0.47740   0.75837   0.50000   0.00000  Uiso   1.00
N688   N     0.45983   0.76671   0.50000   0.00000  Uiso   1.00
N689   N     0.45983   0.78337   0.50000   0.00000  Uiso   1.00
N690   N     0.47740   0.79171   0.50000   0.00000  Uiso   1.00
N691   N     0.51254   0.75837   0.50000   0.00000  Uiso   1.00
N692   N     0.49497   0.76671   0.50000   0.00000  Uiso   1.00
N693   N     0.49497   0.78337   0.50000   0.00000  Uiso   1.00
N694   N     0.51254   0.79171   0.50000   0.00000  Uiso   1.00
N695   N     0.54769   0.75837   0.50000   0.00000  Uiso   1.00
N696   N     0.53012   0.76671   0.50000   0.00000  Uiso   1.00
N697   N     0.53012   0.78337   0.50000   0.00000  Uiso   1.00
N698   N     0.54769   0.79171   0.50000   0.00000  Uiso   1.00
N699   N     0.58283   0.75837   0.50000   0.00000  Uiso   1.00
N700   N     0.56526   0.76671   0.50000   0.00000  Uiso   1.00
N701   N     0.56526   0.78337   0.50000   0.00000  Uiso   1.00
N702   N     0.58283   0.79171   0.50000   0.00000  Uiso   1.00
N703   N     0.61797   0.75837   0.50000   0.00000  Uiso   1.00
N704   N     0.60040   0.76671   0.50000   0.00000  Uiso   1.00
N705   N     0.60040   0.78337   0.50000   0.00000  Uiso   1.00
N706   N     0.61797   0.79171   0.50000   0.00000  Uiso   1.00
N707   N     0.65312   0.75837   0.50000   0.00000  Uiso   1.00
N708   N     0.63554   0.76671   0.50000   0.00000  Uiso   1.00
N709   N     0.63554   0.78337   0.50000   0.00000  Uiso   1.00
N710   N     0.65312   0.79171   0.50000   0.00000  Uiso   1.00
N711   N     0.68826   0.75837   0.50000   0.00000  Uiso   1.00
N712   N     0.67069   0.76671   0.50000   0.00000  Uiso   1.00
N713   N     0.67069   0.78337   0.50000   0.00000  Uiso   1.00
N714   N     0.68826   0.79171   0.50000   0.00000  Uiso   1.00
N715   N     0.72340   0.75837   0.50000   0.00000  Uiso   1.00
N716   N     0.70583   0.76671   0.50000   0.00000  Uiso   1.00
N717   N     0.70583   0.78337   0.50000   0.00000  Uiso   1.00
N718   N     0.72340   0.79171   0.50000   0.00000  Uiso   1.00
N719   N     0.75854   0.75837   0.50000   0.00000  Uiso   1.00
N720   N     0.74097   0.76671   0.50000   0.00000  Uiso   1.00
N721   N     0.74097   0.78337   0.50000   0.00000  Uiso   1.00
N722   N     0.75854   0.79171   0.50000   0.00000  Uiso   1.00
N723   N     0.79369   0.75837   0.50000   0.00000  Uiso   1.00
N724   N     0.77612   0.76671   0.50000   0.00000  Uiso   1.00
N725   N     0.77612   0.78337   0.50000   0.00000  Uiso   1.00
N726   N     0.79369   0.79171   0.50000   0.00000  Uiso   1.00
N727   N     0.82883   0.75837   0.50000   0.00000  Uiso   1.00
N728   N     0.81126   0.76671   0.50000   0.00000  Uiso   1.00
N729   N     0.81126   0.78337   0.50000   0.00000  Uiso   1.00
N730   N     0.82883   0.79171   0.50000   0.00000  Uiso   1.00
N731   N     0.84640   0.76671   0.50000   0.00000  Uiso   1.00
N732   N     0.84640   0.78337   0.50000   0.00000  Uiso   1.00
H733   H     0.12944   0.76002   0.50000   0.00000  Uiso   1.00
H734   H     0.12944   0.79006   0.50000   0.00000  Uiso   1.00
H735   H     0.86051   0.76002   0.50000   0.00000  Uiso   1.00
H736   H     0.86051   0.79006   0.50000   0.00000  Uiso   1.00
N737   N     0.16112   0.80837   0.50000   0.00000  Uiso   1.00
N738   N     0.14354   0.81671   0.50000   0.00000  Uiso   1.00
N739   N     0.14354   0.83337   0.50000   0.00000  Uiso   1.00
N740   N     0.16112   0.84171   0.50000   0.00000  Uiso   1.00
N741   N     0.19626   0.80837   0.50000   0.00000  Uiso   1.00
N742   N     0.17869   0.81671   0.50000   0.00000  Uiso   1.00
N743   N     0.17869   0.83337   0.50000   0.00000  Uiso   1.00
N744   N     0.19626   0.84171   0.50000   0.00000  Uiso   1.00
N745   N     0.23140   0.80837   0.50000   0.00000  Uiso   1.00
N746   N     0.21383   0.81671   0.50000   0.00000  Uiso   1.00
N747   N     0.21383   0.83337   0.50000   0.00000  Uiso   1.00
N748   N     0.23140   0.84171   0.50000   0.00000  Uiso   1.00
N749   N     0.26654   0.80837   0.50000   0.00000  Uiso   1.00
N750   N     0.24897   0.81671   0.50000   0.00000  Uiso   1.00
N751   N     0.24897   0.83337   0.50000   0.00000  Uiso   1.00
N752   N     0.26654   0.84171   0.50000   0.00000  Uiso   1.00
N753   N     0.30169   0.80837   0.50000   0.00000  Uiso   1.00
N754   N     0.28412   0.81671   0.50000   0.00000  Uiso   1.00
N755   N     0.28412   0.83337   0.50000   0.00000  Uiso   1.00
N756   N     0.30169   0.84171   0.50000   0.00000  Uiso   1.00
N757   N     0.33683   0.80837   0.50000   0.00000  Uiso   1.00
N758   N     0.31926   0.81671   0.50000   0.00000  Uiso   1.00
N759   N     0.31926   0.83337   0.50000   0.00000  Uiso   1.00
N760   N     0.33683   0.84171   0.50000   0.00000  Uiso   1.00
N761   N     0.37197   0.80837   0.50000   0.00000  Uiso   1.00
N762   N     0.35440   0.81671   0.50000   0.00000  Uiso   1.00
N763   N     0.35440   0.83337   0.50000   0.00000  Uiso   1.00
N764   N     0.37197   0.84171   0.50000   0.00000  Uiso   1.00
N765   N     0.40712   0.80837   0.50000   0.00000  Uiso   1.00
N766   N     0.38954   0.81671   0.50000   0.00000  Uiso   1.00
N767   N     0.38954   0.83337   0.50000   0.00000  Uiso   1.00
N768   N     0.40712   0.84171   0.50000   0.00000  Uiso   1.00
N769   N     0.44226   0.80837   0.50000   0.00000  Uiso   1.00
N770   N     0.42469   0.81671   0.50000   0.00000  Uiso   1.00
N771   N     0.42469   0.83337   0.50000   0.00000  Uiso   1.00
N772   N     0.44226   0.84171   0.50000   0.00000  Uiso   1.00
N773   N     0.47740   0.80837   0.50000   0.00000  Uiso   1.00
N774   N     0.45983   0.81671   0.50000   0.00000  Uiso   1.00
N775   N     0.45983   0.83337   0.50000   0.00000  Uiso   1.00
N776   N     0.47740   0.84171   0.50000   0.00000  Uiso   1.00
N777   N     0.51254   0.80837   0.50000   0.00000  Uiso   1.00
N778   N     0.49497   0.81671   0.50000   0.00000  Uiso   1.00
N779   N     0.49497   0.83337   0.50000   0.00000  Uiso   1.00
N780   N     0.51254   0.84171   0.50000   0.00000  Uiso   1.00
N781   N     0.54769   0.80837   0.50000   0.00000  Uiso   1.00
N782   N     0.53012   0.81671   0.50000   0.00000  Uiso   1.00
N783   N     0.53012   0.83337   0.50000   0.00000  Uiso   1.00
N784   N     0.54769   0.84171   0.50000   0.00000  Uiso   1.00
N785   N     0.58283   0.80837   0.50000   0.00000  Uiso   1.00
N786   N     0.56526   0.81671   0.50000   0.00000  Uiso   1.00
N787   N     0.56526   0.83337   0.50000   0.00000  Uiso   1.00
N788   N     0.58283   0.84171   0.50000   0.00000  Uiso   1.00
N789   N     0.61797   0.80837   0.50000   0.00000  Uiso   1.00
N790   N     0.60040   0.81671   0.50000   0.00000  Uiso   1.00
N791   N     0.60040   0.83337   0.50000   0.00000  Uiso   1.00
N792   N     0.61797   0.84171   0.50000   0.00000  Uiso   1.00
N793   N     0.65312   0.80837   0.50000   0.00000  Uiso   1.00
N794   N     0.63554   0.81671   0.50000   0.00000  Uiso   1.00
N795   N     0.63554   0.83337   0.50000   0.00000  Uiso   1.00
N796   N     0.65312   0.84171   0.50000   0.00000  Uiso   1.00
N797   N     0.68826   0.80837   0.50000   0.00000  Uiso   1.00
N798   N     0.67069   0.81671   0.50000   0.00000  Uiso   1.00
N799   N     0.67069   0.83337   0.50000   0.00000  Uiso   1.00
N800   N     0.68826   0.84171   0.50000   0.00000  Uiso   1.00
N801   N     0.72340   0.80837   0.50000   0.00000  Uiso   1.00
N802   N     0.70583   0.81671   0.50000   0.00000  Uiso   1.00
N803   N     0.70583   0.83337   0.50000   0.00000  Uiso   1.00
N804   N     0.72340   0.84171   0.50000   0.00000  Uiso   1.00
N805   N     0.75854   0.80837   0.50000   0.00000  Uiso   1.00
N806   N     0.74097   0.81671   0.50000   0.00000  Uiso   1.00
N807   N     0.74097   0.83337   0.50000   0.00000  Uiso   1.00
N808   N     0.75854   0.84171   0.50000   0.00000  Uiso   1.00
N809   N     0.79369   0.80837   0.50000   0.00000  Uiso   1.00
N810   N     0.77612   0.81671   0.50000   0.00000  Uiso   1.00
N811   N     0.77612   0.83337   0.50000   0.00000  Uiso   1.00
N812   N     0.79369   0.84171   0.50000   0.00000  Uiso   1.00
N813   N     0.82883   0.80837   0.50000   0.00000  Uiso   1.00
N814   N     0.81126   0.81671   0.50000   0.00000  Uiso   1.00
N815   N     0.81126   0.83337   0.50000   0.00000  Uiso   1.00
N816   N     0.82883   0.84171   0.50000   0.00000  Uiso   1.00
N817   N     0.84640   0.81671   0.50000   0.00000  Uiso   1.00
N818   N     0.84640   0.83337   0.50000   0.00000  Uiso   1.00
H819   H     0.12944   0.81002   0.50000   0.00000  Uiso   1.00
H820   H     0.12944   0.84006   0.50000   0.00000  Uiso   1.00
H821   H     0.86051   0.81002   0.50000   0.00000  Uiso   1.00
H822   H     0.86051   0.84006   0.50000   0.00000  Uiso   1.00
N823   N     0.16112   0.85837   0.50000   0.00000  Uiso   1.00
N824   N     0.14354   0.86671   0.50000   0.00000  Uiso   1.00
N825   N     0.14354   0.88337   0.50000   0.00000  Uiso   1.00
N826   N     0.16112   0.89171   0.50000   0.00000  Uiso   1.00
N827   N     0.19626   0.85837   0.50000   0.00000  Uiso   1.00
N828   N     0.17869   0.86671   0.50000   0.00000  Uiso   1.00
N829   N     0.17869   0.88337   0.50000   0.00000  Uiso   1.00
N830   N     0.19626   0.89171   0.50000   0.00000  Uiso   1.00
N831   N     0.23140   0.85837   0.50000   0.00000  Uiso   1.00
N832   N     0.21383   0.86671   0.50000   0.00000  Uiso   1.00
N833   N     0.21383   0.88337   0.50000   0.00000  Uiso   1.00
N834   N     0.23140   0.89171   0.50000   0.00000  Uiso   1.00
N835   N     0.26654   0.85837   0.50000   0.00000  Uiso   1.00
N836   N     0.24897   0.86671   0.50000   0.00000  Uiso   1.00
N837   N     0.24897   0.88337   0.50000   0.00000  Uiso   1.00
N838   N     0.26654   0.89171   0.50000   0.00000  Uiso   1.00
N839   N     0.30169   0.85837   0.50000   0.00000  Uiso   1.00
N840   N     0.28412   0.86671   0.50000   0.00000  Uiso   1.00
N841   N     0.28412   0.88337   0.50000   0.00000  Uiso   1.00
N842   N     0.30169   0.89171   0.50000   0.00000  Uiso   1.00
N843   N     0.33683   0.85837   0.50000   0.00000  Uiso   1.00
N844   N     0.31926   0.86671   0.50000   0.00000  Uiso   1.00
N845   N     0.31926   0.88337   0.50000   0.00000  Uiso   1.00
N846   N     0.33683   0.89171   0.50000   0.00000  Uiso   1.00
N847   N     0.37197   0.85837   0.50000   0.00000  Uiso   1.00
N848   N     0.35440   0.86671   0.50000   0.00000  Uiso   1.00
N849   N     0.35440   0.88337   0.50000   0.00000  Uiso   1.00
N850   N     0.37197   0.89171   0.50000   0.00000  Uiso   1.00
N851   N     0.40712   0.85837   0.50000   0.00000  Uiso   1.00
N852   N     0.38954   0.86671   0.50000   0.00000  Uiso   1.00
N853   N     0.38954   0.88337   0.50000   0.00000  Uiso   1.00
N854   N     0.40712   0.89171   0.50000   0.00000  Uiso   1.00
N855   N     0.44226   0.85837   0.50000   0.00000  Uiso   1.00
N856   N     0.42469   0.86671   0.50000   0.00000  Uiso   1.00
N857   N     0.42469   0.88337   0.50000   0.00000  Uiso   1.00
N858   N     0.44226   0.89171   0.50000   0.00000  Uiso   1.00
N859   N     0.47740   0.85837   0.50000   0.00000  Uiso   1.00
N860   N     0.45983   0.86671   0.50000   0.00000  Uiso   1.00
N861   N     0.45983   0.88337   0.50000   0.00000  Uiso   1.00
N862   N     0.47740   0.89171   0.50000   0.00000  Uiso   1.00
N863   N     0.51254   0.85837   0.50000   0.00000  Uiso   1.00
N864   N     0.49497   0.86671   0.50000   0.00000  Uiso   1.00
N865   N     0.49497   0.88337   0.50000   0.00000  Uiso   1.00
N866   N     0.51254   0.89171   0.50000   0.00000  Uiso   1.00
N867   N     0.54769   0.85837   0.50000   0.00000  Uiso   1.00
N868   N     0.53012   0.86671   0.50000   0.00000  Uiso   1.00
N869   N     0.53012   0.88337   0.50000   0.00000  Uiso   1.00
N870   N     0.54769   0.89171   0.50000   0.00000  Uiso   1.00
N871   N     0.58283   0.85837   0.50000   0.00000  Uiso   1.00
N872   N     0.56526   0.86671   0.50000   0.00000  Uiso   1.00
N873   N     0.56526   0.88337   0.50000   0.00000  Uiso   1.00
N874   N     0.58283   0.89171   0.50000   0.00000  Uiso   1.00
N875   N     0.61797   0.85837   0.50000   0.00000  Uiso   1.00
N876   N     0.60040   0.86671   0.50000   0.00000  Uiso   1.00
N877   N     0.60040   0.88337   0.50000   0.00000  Uiso   1.00
N878   N     0.61797   0.89171   0.50000   0.00000  Uiso   1.00
N879   N     0.65312   0.85837   0.50000   0.00000  Uiso   1.00
N880   N     0.63554   0.86671   0.50000   0.00000  Uiso   1.00
N881   N     0.63554   0.88337   0.50000   0.00000  Uiso   1.00
N882   N     0.65312   0.89171   0.50000   0.00000  Uiso   1.00
N883   N     0.68826   0.85837   0.50000   0.00000  Uiso   1.00
N884   N     0.67069   0.86671   0.50000   0.00000  Uiso   1.00
N885   N     0.67069   0.88337   0.50000   0.00000  Uiso   1.00
N886   N     0.68826   0.89171   0.50000   0.00000  Uiso   1.00
N887   N     0.72340   0.85837   0.50000   0.00000  Uiso   1.00
N888   N     0.70583   0.86671   0.50000   0.00000  Uiso   1.00
N889   N     0.70583   0.88337   0.50000   0.00000  Uiso   1.00
N890   N     0.72340   0.89171   0.50000   0.00000  Uiso   1.00
N891   N     0.75854   0.85837   0.50000   0.00000  Uiso   1.00
N892   N     0.74097   0.86671   0.50000   0.00000  Uiso   1.00
N893   N     0.74097   0.88337   0.50000   0.00000  Uiso   1.00
N894   N     0.75854   0.89171   0.50000   0.00000  Uiso   1.00
N895   N     0.79369   0.85837   0.50000   0.00000  Uiso   1.00
N896   N     0.77612   0.86671   0.50000   0.00000  Uiso   1.00
N897   N     0.77612   0.88337   0.50000   0.00000  Uiso   1.00
N898   N     0.79369   0.89171   0.50000   0.00000  Uiso   1.00
N899   N     0.82883   0.85837   0.50000   0.00000  Uiso   1.00
N900   N     0.81126   0.86671   0.50000   0.00000  Uiso   1.00
N901   N     0.81126   0.88337   0.50000   0.00000  Uiso   1.00
N902   N     0.82883   0.89171   0.50000   0.00000  Uiso   1.00
N903   N     0.84640   0.86671   0.50000   0.00000  Uiso   1.00
N904   N     0.84640   0.88337   0.50000   0.00000  Uiso   1.00
H905   H     0.12944   0.86002   0.50000   0.00000  Uiso   1.00
H906   H     0.12944   0.89006   0.50000   0.00000  Uiso   1.00
H907   H     0.86051   0.86002   0.50000   0.00000  Uiso   1.00
H908   H     0.86051   0.89006   0.50000   0.00000  Uiso   1.00
N909   N     0.16112   0.90837   0.50000   0.00000  Uiso   1.00
N910   N     0.14354   0.91671   0.50000   0.00000  Uiso   1.00
N911   N     0.14354   0.93337   0.50000   0.00000  Uiso   1.00
N912   N     0.16112   0.94171   0.50000   0.00000  Uiso   1.00
N913   N     0.19626   0.90837   0.50000   0.00000  Uiso   1.00
N914   N     0.17869   0.91671   0.50000   0.00000  Uiso   1.00
N915   N     0.17869   0.93337   0.50000   0.00000  Uiso   1.00
N916   N     0.19626   0.94171   0.50000   0.00000  Uiso   1.00
N917   N     0.23140   0.90837   0.50000   0.00000  Uiso   1.00
N918   N     0.21383   0.91671   0.50000   0.00000  Uiso   1.00
N919   N     0.21383   0.93337   0.50000   0.00000  Uiso   1.00
N920   N     0.23140   0.94171   0.50000   0.00000  Uiso   1.00
N921   N     0.26654   0.90837   0.50000   0.00000  Uiso   1.00
N922   N     0.24897   0.91671   0.50000   0.00000  Uiso   1.00
N923   N     0.24897   0.93337   0.50000   0.00000  Uiso   1.00
N924   N     0.26654   0.94171   0.50000   0.00000  Uiso   1.00
N925   N     0.30169   0.90837   0.50000   0.00000  Uiso   1.00
N926   N     0.28412   0.91671   0.50000   0.00000  Uiso   1.00
N927   N     0.28412   0.93337   0.50000   0.00000  Uiso   1.00
N928   N     0.30169   0.94171   0.50000   0.00000  Uiso   1.00
N929   N     0.33683   0.90837   0.50000   0.00000  Uiso   1.00
N930   N     0.31926   0.91671   0.50000   0.00000  Uiso   1.00
N931   N     0.31926   0.93337   0.50000   0.00000  Uiso   1.00
N932   N     0.33683   0.94171   0.50000   0.00000  Uiso   1.00
N933   N     0.37197   0.90837   0.50000   0.00000  Uiso   1.00
N934   N     0.35440   0.91671   0.50000   0.00000  Uiso   1.00
N935   N     0.35440   0.93337   0.50000   0.00000  Uiso   1.00
N936   N     0.37197   0.94171   0.50000   0.00000  Uiso   1.00
N937   N     0.40712   0.90837   0.50000   0.00000  Uiso   1.00
N938   N     0.38954   0.91671   0.50000   0.00000  Uiso   1.00
N939   N     0.38954   0.93337   0.50000   0.00000  Uiso   1.00
N940   N     0.40712   0.94171   0.50000   0.00000  Uiso   1.00
N941   N     0.44226   0.90837   0.50000   0.00000  Uiso   1.00
N942   N     0.42469   0.91671   0.50000   0.00000  Uiso   1.00
N943   N     0.42469   0.93337   0.50000   0.00000  Uiso   1.00
N944   N     0.44226   0.94171   0.50000   0.00000  Uiso   1.00
N945   N     0.47740   0.90837   0.50000   0.00000  Uiso   1.00
N946   N     0.45983   0.91671   0.50000   0.00000  Uiso   1.00
N947   N     0.45983   0.93337   0.50000   0.00000  Uiso   1.00
N948   N     0.47740   0.94171   0.50000   0.00000  Uiso   1.00
N949   N     0.51254   0.90837   0.50000   0.00000  Uiso   1.00
N950   N     0.49497   0.91671   0.50000   0.00000  Uiso   1.00
N951   N     0.49497   0.93337   0.50000   0.00000  Uiso   1.00
N952   N     0.51254   0.94171   0.50000   0.00000  Uiso   1.00
N953   N     0.54769   0.90837   0.50000   0.00000  Uiso   1.00
N954   N     0.53012   0.91671   0.50000   0.00000  Uiso   1.00
N955   N     0.53012   0.93337   0.50000   0.00000  Uiso   1.00
N956   N     0.54769   0.94171   0.50000   0.00000  Uiso   1.00
N957   N     0.58283   0.90837   0.50000   0.00000  Uiso   1.00
N958   N     0.56526   0.91671   0.50000   0.00000  Uiso   1.00
N959   N     0.56526   0.93337   0.50000   0.00000  Uiso   1.00
N960   N     0.58283   0.94171   0.50000   0.00000  Uiso   1.00
N961   N     0.61797   0.90837   0.50000   0.00000  Uiso   1.00
N962   N     0.60040   0.91671   0.50000   0.00000  Uiso   1.00
N963   N     0.60040   0.93337   0.50000   0.00000  Uiso   1.00
N964   N     0.61797   0.94171   0.50000   0.00000  Uiso   1.00
N965   N     0.65312   0.90837   0.50000   0.00000  Uiso   1.00
N966   N     0.63554   0.91671   0.50000   0.00000  Uiso   1.00
N967   N     0.63554   0.93337   0.50000   0.00000  Uiso   1.00
N968   N     0.65312   0.94171   0.50000   0.00000  Uiso   1.00
N969   N     0.68826   0.90837   0.50000   0.00000  Uiso   1.00
N970   N     0.67069   0.91671   0.50000   0.00000  Uiso   1.00
N971   N     0.67069   0.93337   0.50000   0.00000  Uiso   1.00
N972   N     0.68826   0.94171   0.50000   0.00000  Uiso   1.00
N973   N     0.72340   0.90837   0.50000   0.00000  Uiso   1.00
N974   N     0.70583   0.91671   0.50000   0.00000  Uiso   1.00
N975   N     0.70583   0.93337   0.50000   0.00000  Uiso   1.00
N976   N     0.72340   0.94171   0.50000   0.00000  Uiso   1.00
N977   N     0.75854   0.90837   0.50000   0.00000  Uiso   1.00
N978   N     0.74097   0.91671   0.50000   0.00000  Uiso   1.00
N979   N     0.74097   0.93337   0.50000   0.00000  Uiso   1.00
N980   N     0.75854   0.94171   0.50000   0.00000  Uiso   1.00
N981   N     0.79369   0.90837   0.50000   0.00000  Uiso   1.00
N982   N     0.77612   0.91671   0.50000   0.00000  Uiso   1.00
N983   N     0.77612   0.93337   0.50000   0.00000  Uiso   1.00
N984   N     0.79369   0.94171   0.50000   0.00000  Uiso   1.00
N985   N     0.82883   0.90837   0.50000   0.00000  Uiso   1.00
N986   N     0.81126   0.91671   0.50000   0.00000  Uiso   1.00
N987   N     0.81126   0.93337   0.50000   0.00000  Uiso   1.00
N988   N     0.82883   0.94171   0.50000   0.00000  Uiso   1.00
N989   N     0.84640   0.91671   0.50000   0.00000  Uiso   1.00
N990   N     0.84640   0.93337   0.50000   0.00000  Uiso   1.00
H991   H     0.12944   0.91002   0.50000   0.00000  Uiso   1.00
H992   H     0.12944   0.94006   0.50000   0.00000  Uiso   1.00
H993   H     0.86051   0.91002   0.50000   0.00000  Uiso   1.00
H994   H     0.86051   0.94006   0.50000   0.00000  Uiso   1.00
N995   N     0.16112   0.95837   0.50000   0.00000  Uiso   1.00
N996   N     0.14354   0.96671   0.50000   0.00000  Uiso   1.00
N997   N     0.14354   0.98337   0.50000   0.00000  Uiso   1.00
N998   N     0.16112   0.99171   0.50000   0.00000  Uiso   1.00
N999   N     0.19626   0.95837   0.50000   0.00000  Uiso   1.00
N1000  N     0.17869   0.96671   0.50000   0.00000  Uiso   1.00
N1001  N     0.17869   0.98337   0.50000   0.00000  Uiso   1.00
N1002  N     0.19626   0.99171   0.50000   0.00000  Uiso   1.00
N1003  N     0.23140   0.95837   0.50000   0.00000  Uiso   1.00
N1004  N     0.21383   0.96671   0.50000   0.00000  Uiso   1.00
N1005  N     0.21383   0.98337   0.50000   0.00000  Uiso   1.00
N1006  N     0.23140   0.99171   0.50000   0.00000  Uiso   1.00
N1007  N     0.26654   0.95837   0.50000   0.00000  Uiso   1.00
N1008  N     0.24897   0.96671   0.50000   0.00000  Uiso   1.00
N1009  N     0.24897   0.98337   0.50000   0.00000  Uiso   1.00
N1010  N     0.26654   0.99171   0.50000   0.00000  Uiso   1.00
N1011  N     0.30169   0.95837   0.50000   0.00000  Uiso   1.00
N1012  N     0.28412   0.96671   0.50000   0.00000  Uiso   1.00
N1013  N     0.28412   0.98337   0.50000   0.00000  Uiso   1.00
N1014  N     0.30169   0.99171   0.50000   0.00000  Uiso   1.00
N1015  N     0.33683   0.95837   0.50000   0.00000  Uiso   1.00
N1016  N     0.31926   0.96671   0.50000   0.00000  Uiso   1.00
N1017  N     0.31926   0.98337   0.50000   0.00000  Uiso   1.00
N1018  N     0.33683   0.99171   0.50000   0.00000  Uiso   1.00
N1019  N     0.37197   0.95837   0.50000   0.00000  Uiso   1.00
N1020  N     0.35440   0.96671   0.50000   0.00000  Uiso   1.00
N1021  N     0.35440   0.98337   0.50000   0.00000  Uiso   1.00
N1022  N     0.37197   0.99171   0.50000   0.00000  Uiso   1.00
N1023  N     0.40712   0.95837   0.50000   0.00000  Uiso   1.00
N1024  N     0.38954   0.96671   0.50000   0.00000  Uiso   1.00
N1025  N     0.38954   0.98337   0.50000   0.00000  Uiso   1.00
N1026  N     0.40712   0.99171   0.50000   0.00000  Uiso   1.00
N1027  N     0.44226   0.95837   0.50000   0.00000  Uiso   1.00
N1028  N     0.42469   0.96671   0.50000   0.00000  Uiso   1.00
N1029  N     0.42469   0.98337   0.50000   0.00000  Uiso   1.00
N1030  N     0.44226   0.99171   0.50000   0.00000  Uiso   1.00
N1031  N     0.47740   0.95837   0.50000   0.00000  Uiso   1.00
N1032  N     0.45983   0.96671   0.50000   0.00000  Uiso   1.00
N1033  N     0.45983   0.98337   0.50000   0.00000  Uiso   1.00
N1034  N     0.47740   0.99171   0.50000   0.00000  Uiso   1.00
N1035  N     0.51254   0.95837   0.50000   0.00000  Uiso   1.00
N1036  N     0.49497   0.96671   0.50000   0.00000  Uiso   1.00
N1037  N     0.49497   0.98337   0.50000   0.00000  Uiso   1.00
N1038  N     0.51254   0.99171   0.50000   0.00000  Uiso   1.00
N1039  N     0.54769   0.95837   0.50000   0.00000  Uiso   1.00
N1040  N     0.53012   0.96671   0.50000   0.00000  Uiso   1.00
N1041  N     0.53012   0.98337   0.50000   0.00000  Uiso   1.00
N1042  N     0.54769   0.99171   0.50000   0.00000  Uiso   1.00
N1043  N     0.58283   0.95837   0.50000   0.00000  Uiso   1.00
N1044  N     0.56526   0.96671   0.50000   0.00000  Uiso   1.00
N1045  N     0.56526   0.98337   0.50000   0.00000  Uiso   1.00
N1046  N     0.58283   0.99171   0.50000   0.00000  Uiso   1.00
N1047  N     0.61797   0.95837   0.50000   0.00000  Uiso   1.00
N1048  N     0.60040   0.96671   0.50000   0.00000  Uiso   1.00
N1049  N     0.60040   0.98337   0.50000   0.00000  Uiso   1.00
N1050  N     0.61797   0.99171   0.50000   0.00000  Uiso   1.00
N1051  N     0.65312   0.95837   0.50000   0.00000  Uiso   1.00
N1052  N     0.63554   0.96671   0.50000   0.00000  Uiso   1.00
N1053  N     0.63554   0.98337   0.50000   0.00000  Uiso   1.00
N1054  N     0.65312   0.99171   0.50000   0.00000  Uiso   1.00
N1055  N     0.68826   0.95837   0.50000   0.00000  Uiso   1.00
N1056  N     0.67069   0.96671   0.50000   0.00000  Uiso   1.00
N1057  N     0.67069   0.98337   0.50000   0.00000  Uiso   1.00
N1058  N     0.68826   0.99171   0.50000   0.00000  Uiso   1.00
N1059  N     0.72340   0.95837   0.50000   0.00000  Uiso   1.00
N1060  N     0.70583   0.96671   0.50000   0.00000  Uiso   1.00
N1061  N     0.70583   0.98337   0.50000   0.00000  Uiso   1.00
N1062  N     0.72340   0.99171   0.50000   0.00000  Uiso   1.00
N1063  N     0.75854   0.95837   0.50000   0.00000  Uiso   1.00
N1064  N     0.74097   0.96671   0.50000   0.00000  Uiso   1.00
N1065  N     0.74097   0.98337   0.50000   0.00000  Uiso   1.00
N1066  N     0.75854   0.99171   0.50000   0.00000  Uiso   1.00
N1067  N     0.79369   0.95837   0.50000   0.00000  Uiso   1.00
N1068  N     0.77612   0.96671   0.50000   0.00000  Uiso   1.00
N1069  N     0.77612   0.98337   0.50000   0.00000  Uiso   1.00
N1070  N     0.79369   0.99171   0.50000   0.00000  Uiso   1.00
N1071  N     0.82883   0.95837   0.50000   0.00000  Uiso   1.00
N1072  N     0.81126   0.96671   0.50000   0.00000  Uiso   1.00
N1073  N     0.81126   0.98337   0.50000   0.00000  Uiso   1.00
N1074  N     0.82883   0.99171   0.50000   0.00000  Uiso   1.00
N1075  N     0.84640   0.96671   0.50000   0.00000  Uiso   1.00
N1076  N     0.84640   0.98337   0.50000   0.00000  Uiso   1.00
H1077  H     0.12944   0.96002   0.50000   0.00000  Uiso   1.00
H1078  H     0.12944   0.99006   0.50000   0.00000  Uiso   1.00
H1079  H     0.86051   0.96002   0.50000   0.00000  Uiso   1.00
H1080  H     0.86051   0.99006   0.50000   0.00000  Uiso   1.00
H1081  H     0.16112   0.25508   0.50000   0.00000  Uiso   1.00
H1082  H     0.19626   0.25508   0.50000   0.00000  Uiso   1.00
H1083  H     0.23140   0.25508   0.50000   0.00000  Uiso   1.00
H1084  H     0.26654   0.25508   0.50000   0.00000  Uiso   1.00
H1085  H     0.30169   0.25508   0.50000   0.00000  Uiso   1.00
H1086  H     0.33683   0.25508   0.50000   0.00000  Uiso   1.00
H1087  H     0.37197   0.25508   0.50000   0.00000  Uiso   1.00
H1088  H     0.61797   0.25508   0.50000   0.00000  Uiso   1.00
H1089  H     0.65312   0.25508   0.50000   0.00000  Uiso   1.00
H1090  H     0.68826   0.25508   0.50000   0.00000  Uiso   1.00
H1091  H     0.72340   0.25508   0.50000   0.00000  Uiso   1.00
H1092  H     0.75854   0.25508   0.50000   0.00000  Uiso   1.00
H1093  H     0.79369   0.25508   0.50000   0.00000  Uiso   1.00
H1094  H     0.82883   0.25508   0.50000   0.00000  Uiso   1.00
H1095  H     0.39301   0.26506   0.50000   0.00000  Uiso   1.00
H1096  H     0.39301   0.28502   0.50000   0.00000  Uiso   1.00
H1097  H     0.59693   0.26506   0.50000   0.00000  Uiso   1.00
H1098  H     0.59693   0.28502   0.50000   0.00000  Uiso   1.00
H1099  H     0.39301   0.31506   0.50000   0.00000  Uiso   1.00
H1100  H     0.39301   0.33502   0.50000   0.00000  Uiso   1.00
H1101  H     0.59693   0.31506   0.50000   0.00000  Uiso   1.00
H1102  H     0.59693   0.33502   0.50000   0.00000  Uiso   1.00
H1103  H     0.39301   0.36506   0.50000   0.00000  Uiso   1.00
H1104  H     0.39301   0.38502   0.50000   0.00000  Uiso   1.00
H1105  H     0.59693   0.36506   0.50000   0.00000  Uiso   1.00
H1106  H     0.59693   0.38502   0.50000   0.00000  Uiso   1.00
H1107  H     0.39301   0.41506   0.50000   0.00000  Uiso   1.00
H1108  H     0.39301   0.43502   0.50000   0.00000  Uiso   1.00
H1109  H     0.59693   0.41506   0.50000   0.00000  Uiso   1.00
H1110  H     0.59693   0.43502   0.50000   0.00000  Uiso   1.00
H1111  H     0.39301   0.46506   0.50000   0.00000  Uiso   1.00
H1112  H     0.39301   0.48502   0.50000   0.00000  Uiso   1.00
H1113  H     0.59693   0.46506   0.50000   0.00000  Uiso   1.00
H1114  H     0.59693   0.48502   0.50000   0.00000  Uiso   1.00
H1115  H     0.39301   0.51506   0.50000   0.00000  Uiso   1.00
H1116  H     0.39301   0.53502   0.50000   0.00000  Uiso   1.00
H1117  H     0.59693   0.51506   0.50000   0.00000  Uiso   1.00
H1118  H     0.59693   0.53502   0.50000   0.00000  Uiso   1.00
H1119  H     0.39301   0.56506   0.50000   0.00000  Uiso   1.00
H1120  H     0.39301   0.58502   0.50000   0.00000  Uiso   1.00
H1121  H     0.59693   0.56506   0.50000   0.00000  Uiso   1.00
H1122  H     0.59693   0.58502   0.50000   0.00000  Uiso   1.00
H1123  H     0.39301   0.61506   0.50000   0.00000  Uiso   1.00
H1124  H     0.39301   0.63502   0.50000   0.00000  Uiso   1.00
H1125  H     0.59693   0.61506   0.50000   0.00000  Uiso   1.00
H1126  H     0.59693   0.63502   0.50000   0.00000  Uiso   1.00
H1127  H     0.39301   0.66506   0.50000   0.00000  Uiso   1.00
H1128  H     0.39301   0.68502   0.50000   0.00000  Uiso   1.00
H1129  H     0.59693   0.66506   0.50000   0.00000  Uiso   1.00
H1130  H     0.59693   0.68502   0.50000   0.00000  Uiso   1.00
H1131  H     0.39301   0.71506   0.50000   0.00000  Uiso   1.00
H1132  H     0.39301   0.73502   0.50000   0.00000  Uiso   1.00
H1133  H     0.59693   0.71506   0.50000   0.00000  Uiso   1.00
H1134  H     0.59693   0.73502   0.50000   0.00000  Uiso   1.00
H1135  H     0.16112   0.74500   0.50000   0.00000  Uiso   1.00
H1136  H     0.19626   0.74500   0.50000   0.00000  Uiso   1.00
H1137  H     0.23140   0.74500   0.50000   0.00000  Uiso   1.00
H1138  H     0.26654   0.74500   0.50000   0.00000  Uiso   1.00
H1139  H     0.30169   0.74500   0.50000   0.00000  Uiso   1.00
H1140  H     0.33683   0.74500   0.50000   0.00000  Uiso   1.00
H1141  H     0.37197   0.74500   0.50000   0.00000  Uiso   1.00
H1142  H     0.61797   0.74500   0.50000   0.00000  Uiso   1.00
H1143  H     0.65312   0.74500   0.50000   0.00000  Uiso   1.00
H1144  H     0.68826   0.74500   0.50000   0.00000  Uiso   1.00
H1145  H     0.72340   0.74500   0.50000   0.00000  Uiso   1.00
H1146  H     0.75854   0.74500   0.50000   0.00000  Uiso   1.00
H1147  H     0.79369   0.74500   0.50000   0.00000  Uiso   1.00
H1148  H     0.82883   0.74500   0.50000   0.00000  Uiso   1.00
loop_
_geom_bond_atom_site_label_1
_geom_bond_atom_site_label_2
_geom_bond_distance
_geom_bond_site_symmetry_2
_ccdc_geom_bond_type
N1     N6      1.420   .     A
N1     N2      1.420   .     A
N1     N998    1.420   1_545 A
N2     N3      1.420   .     A
N2     H83     1.140   .     S
N3     N4      1.420   .     A
N3     H84     1.140   .     S
N4     N7      1.420   .     A
N4     N87     1.420   .     A
N5     N10     1.420   .     A
N5     N6      1.420   .     A
N5     N1002   1.420   1_545 A
N6     N7      1.420   .     A
N7     N8      1.420   .     A
N8     N11     1.420   .     A
N8     N91     1.420   .     A
N9     N14     1.420   .     A
N9     N10     1.420   .     A
N9     N1006   1.420   1_545 A
N10    N11     1.420   .     A
N11    N12     1.420   .     A
N12    N15     1.420   .     A
N12    N95     1.420   .     A
N13    N18     1.420   .     A
N13    N14     1.420   .     A
N13    N1010   1.420   1_545 A
N14    N15     1.420   .     A
N15    N16     1.420   .     A
N16    N19     1.420   .     A
N16    N99     1.420   .     A
N17    N22     1.420   .     A
N17    N18     1.420   .     A
N17    N1014   1.420   1_545 A
N18    N19     1.420   .     A
N19    N20     1.420   .     A
N20    N23     1.420   .     A
N20    N103    1.420   .     A
N21    N26     1.420   .     A
N21    N22     1.420   .     A
N21    N1018   1.420   1_545 A
N22    N23     1.420   .     A
N23    N24     1.420   .     A
N24    N27     1.420   .     A
N24    N107    1.420   .     A
N25    N30     1.420   .     A
N25    N26     1.420   .     A
N25    N1022   1.420   1_545 A
N26    N27     1.420   .     A
N27    N28     1.420   .     A
N28    N31     1.420   .     A
N28    N111    1.420   .     A
N29    N34     1.420   .     A
N29    N30     1.420   .     A
N29    N1026   1.420   1_545 A
N30    N31     1.420   .     A
N31    N32     1.420   .     A
N32    N35     1.420   .     A
N32    N115    1.420   .     A
N33    N38     1.420   .     A
N33    N34     1.420   .     A
N33    N1030   1.420   1_545 A
N34    N35     1.420   .     A
N35    N36     1.420   .     A
N36    N39     1.420   .     A
N36    N119    1.420   .     A
N37    N42     1.420   .     A
N37    N38     1.420   .     A
N37    N1034   1.420   1_545 A
N38    N39     1.420   .     A
N39    N40     1.420   .     A
N40    N43     1.420   .     A
N40    N123    1.420   .     A
N41    N46     1.420   .     A
N41    N42     1.420   .     A
N41    N1038   1.420   1_545 A
N42    N43     1.420   .     A
N43    N44     1.420   .     A
N44    N47     1.420   .     A
N44    N127    1.420   .     A
N45    N50     1.420   .     A
N45    N46     1.420   .     A
N45    N1042   1.420   1_545 A
N46    N47     1.420   .     A
N47    N48     1.420   .     A
N48    N51     1.420   .     A
N48    N131    1.420   .     A
N49    N54     1.420   .     A
N49    N50     1.420   .     A
N49    N1046   1.420   1_545 A
N50    N51     1.420   .     A
N51    N52     1.420   .     A
N52    N55     1.420   .     A
N52    N135    1.420   .     A
N53    N58     1.420   .     A
N53    N54     1.420   .     A
N53    N1050   1.420   1_545 A
N54    N55     1.420   .     A
N55    N56     1.420   .     A
N56    N59     1.420   .     A
N56    N139    1.420   .     A
N57    N62     1.420   .     A
N57    N58     1.420   .     A
N57    N1054   1.420   1_545 A
N58    N59     1.420   .     A
N59    N60     1.420   .     A
N60    N63     1.420   .     A
N60    N143    1.420   .     A
N61    N66     1.420   .     A
N61    N62     1.420   .     A
N61    N1058   1.420   1_545 A
N62    N63     1.420   .     A
N63    N64     1.420   .     A
N64    N67     1.420   .     A
N64    N147    1.420   .     A
N65    N70     1.420   .     A
N65    N66     1.420   .     A
N65    N1062   1.420   1_545 A
N66    N67     1.420   .     A
N67    N68     1.420   .     A
N68    N71     1.420   .     A
N68    N151    1.420   .     A
N69    N74     1.420   .     A
N69    N70     1.420   .     A
N69    N1066   1.420   1_545 A
N70    N71     1.420   .     A
N71    N72     1.420   .     A
N72    N75     1.420   .     A
N72    N155    1.420   .     A
N73    N78     1.420   .     A
N73    N74     1.420   .     A
N73    N1070   1.420   1_545 A
N74    N75     1.420   .     A
N75    N76     1.420   .     A
N76    N79     1.420   .     A
N76    N159    1.420   .     A
N77    N81     1.420   .     A
N77    N78     1.420   .     A
N77    N1074   1.420   1_545 A
N78    N79     1.420   .     A
N79    N80     1.420   .     A
N80    N82     1.420   .     A
N80    N163    1.420   .     A
N81    N82     1.420   .     A
N81    H85     1.140   .     S
N82    H86     1.140   .     S
N87    N92     1.420   .     A
N87    N88     1.420   .     A
N88    N89     1.420   .     A
N88    H169    1.140   .     S
N89    N90     1.420   .     A
N89    H170    1.140   .     S
N90    N93     1.420   .     A
N90    N173    1.420   .     A
N91    N96     1.420   .     A
N91    N92     1.420   .     A
N92    N93     1.420   .     A
N93    N94     1.420   .     A
N94    N97     1.420   .     A
N94    N177    1.420   .     A
N95    N100    1.420   .     A
N95    N96     1.420   .     A
N96    N97     1.420   .     A
N97    N98     1.420   .     A
N98    N101    1.420   .     A
N98    N181    1.420   .     A
N99    N104    1.420   .     A
N99    N100    1.420   .     A
N100   N101    1.420   .     A
N101   N102    1.420   .     A
N102   N105    1.420   .     A
N102   N185    1.420   .     A
N103   N108    1.420   .     A
N103   N104    1.420   .     A
N104   N105    1.420   .     A
N105   N106    1.420   .     A
N106   N109    1.420   .     A
N106   N189    1.420   .     A
N107   N112    1.420   .     A
N107   N108    1.420   .     A
N108   N109    1.420   .     A
N109   N110    1.420   .     A
N110   N113    1.420   .     A
N110   N193    1.420   .     A
N111   N116    1.420   .     A
N111   N112    1.420   .     A
N112   N113    1.420   .     A
N113   N114    1.420   .     A
N114   N117    1.420   .     A
N114   N197    1.420   .     A
N115   N120    1.420   .     A
N115   N116    1.420   .     A
N116   N117    1.420   .     A
N117   N118    1.420   .     A
N118   N121    1.420   .     A
N118   N201    1.420   .     A
N119   N124    1.420   .     A
N119   N120    1.420   .     A
N120   N121    1.420   .     A
N121   N122    1.420   .     A
N122   N125    1.420   .     A
N122   N205    1.420   .     A
N123   N128    1.420   .     A
N123   N124    1.420   .     A
N124   N125    1.420   .     A
N125   N126    1.420   .     A
N126   N129    1.420   .     A
N126   N209    1.420   .     A
N127   N132    1.420   .     A
N127   N128    1.420   .     A
N128   N129    1.420   .     A
N129   N130    1.420   .     A
N130   N133    1.420   .     A
N130   N213    1.420   .     A
N131   N136    1.420   .     A
N131   N132    1.420   .     A
N132   N133    1.420   .     A
N133   N134    1.420   .     A
N134   N137    1.420   .     A
N134   N217    1.420   .     A
N135   N140    1.420   .     A
N135   N136    1.420   .     A
N136   N137    1.420   .     A
N137   N138    1.420   .     A
N138   N141    1.420   .     A
N138   N221    1.420   .     A
N139   N144    1.420   .     A
N139   N140    1.420   .     A
N140   N141    1.420   .     A
N141   N142    1.420   .     A
N142   N145    1.420   .     A
N142   N225    1.420   .     A
N143   N148    1.420   .     A
N143   N144    1.420   .     A
N144   N145    1.420   .     A
N145   N146    1.420   .     A
N146   N149    1.420   .     A
N146   N229    1.420   .     A
N147   N152    1.420   .     A
N147   N148    1.420   .     A
N148   N149    1.420   .     A
N149   N150    1.420   .     A
N150   N153    1.420   .     A
N150   N233    1.420   .     A
N151   N156    1.420   .     A
N151   N152    1.420   .     A
N152   N153    1.420   .     A
N153   N154    1.420   .     A
N154   N157    1.420   .     A
N154   N237    1.420   .     A
N155   N160    1.420   .     A
N155   N156    1.420   .     A
N156   N157    1.420   .     A
N157   N158    1.420   .     A
N158   N161    1.420   .     A
N158   N241    1.420   .     A
N159   N164    1.420   .     A
N159   N160    1.420   .     A
N160   N161    1.420   .     A
N161   N162    1.420   .     A
N162   N165    1.420   .     A
N162   N245    1.420   .     A
N163   N167    1.420   .     A
N163   N164    1.420   .     A
N164   N165    1.420   .     A
N165   N166    1.420   .     A
N166   N168    1.420   .     A
N166   N249    1.420   .     A
N167   N168    1.420   .     A
N167   H171    1.140   .     S
N168   H172    1.140   .     S
N173   N178    1.420   .     A
N173   N174    1.420   .     A
N174   N175    1.420   .     A
N174   H255    1.140   .     S
N175   N176    1.420   .     A
N175   H256    1.140   .     S
N176   N179    1.420   .     A
N176   N259    1.420   .     A
N177   N182    1.420   .     A
N177   N178    1.420   .     A
N178   N179    1.420   .     A
N179   N180    1.420   .     A
N180   N183    1.420   .     A
N180   N263    1.420   .     A
N181   N186    1.420   .     A
N181   N182    1.420   .     A
N182   N183    1.420   .     A
N183   N184    1.420   .     A
N184   N187    1.420   .     A
N184   N267    1.420   .     A
N185   N190    1.420   .     A
N185   N186    1.420   .     A
N186   N187    1.420   .     A
N187   N188    1.420   .     A
N188   N191    1.420   .     A
N188   N271    1.420   .     A
N189   N194    1.420   .     A
N189   N190    1.420   .     A
N190   N191    1.420   .     A
N191   N192    1.420   .     A
N192   N195    1.420   .     A
N192   N275    1.420   .     A
N193   N198    1.420   .     A
N193   N194    1.420   .     A
N194   N195    1.420   .     A
N195   N196    1.420   .     A
N196   N199    1.420   .     A
N196   N279    1.420   .     A
N197   N202    1.420   .     A
N197   N198    1.420   .     A
N198   N199    1.420   .     A
N199   N200    1.420   .     A
N200   N203    1.420   .     A
N200   N283    1.420   .     A
N201   N206    1.420   .     A
N201   N202    1.420   .     A
N202   N203    1.420   .     A
N203   N204    1.420   .     A
N204   N207    1.420   .     A
N204   N287    1.420   .     A
N205   N210    1.420   .     A
N205   N206    1.420   .     A
N206   N207    1.420   .     A
N207   N208    1.420   .     A
N208   N211    1.420   .     A
N208   N291    1.420   .     A
N209   N214    1.420   .     A
N209   N210    1.420   .     A
N210   N211    1.420   .     A
N211   N212    1.420   .     A
N212   N215    1.420   .     A
N212   N295    1.420   .     A
N213   N218    1.420   .     A
N213   N214    1.420   .     A
N214   N215    1.420   .     A
N215   N216    1.420   .     A
N216   N219    1.420   .     A
N216   N299    1.420   .     A
N217   N222    1.420   .     A
N217   N218    1.420   .     A
N218   N219    1.420   .     A
N219   N220    1.420   .     A
N220   N223    1.420   .     A
N220   N303    1.420   .     A
N221   N226    1.420   .     A
N221   N222    1.420   .     A
N222   N223    1.420   .     A
N223   N224    1.420   .     A
N224   N227    1.420   .     A
N224   N307    1.420   .     A
N225   N230    1.420   .     A
N225   N226    1.420   .     A
N226   N227    1.420   .     A
N227   N228    1.420   .     A
N228   N231    1.420   .     A
N228   N311    1.420   .     A
N229   N234    1.420   .     A
N229   N230    1.420   .     A
N230   N231    1.420   .     A
N231   N232    1.420   .     A
N232   N235    1.420   .     A
N232   N315    1.420   .     A
N233   N238    1.420   .     A
N233   N234    1.420   .     A
N234   N235    1.420   .     A
N235   N236    1.420   .     A
N236   N239    1.420   .     A
N236   N319    1.420   .     A
N237   N242    1.420   .     A
N237   N238    1.420   .     A
N238   N239    1.420   .     A
N239   N240    1.420   .     A
N240   N243    1.420   .     A
N240   N323    1.420   .     A
N241   N246    1.420   .     A
N241   N242    1.420   .     A
N242   N243    1.420   .     A
N243   N244    1.420   .     A
N244   N247    1.420   .     A
N244   N327    1.420   .     A
N245   N250    1.420   .     A
N245   N246    1.420   .     A
N246   N247    1.420   .     A
N247   N248    1.420   .     A
N248   N251    1.420   .     A
N248   N331    1.420   .     A
N249   N253    1.420   .     A
N249   N250    1.420   .     A
N250   N251    1.420   .     A
N251   N252    1.420   .     A
N252   N254    1.420   .     A
N252   N335    1.420   .     A
N253   N254    1.420   .     A
N253   H257    1.140   .     S
N254   H258    1.140   .     S
N259   N264    1.420   .     A
N259   N260    1.420   .     A
N260   N261    1.420   .     A
N260   H341    1.140   .     S
N261   N262    1.420   .     A
N261   H342    1.140   .     S
N262   N265    1.420   .     A
N262   N345    1.420   .     A
N263   N268    1.420   .     A
N263   N264    1.420   .     A
N264   N265    1.420   .     A
N265   N266    1.420   .     A
N266   N269    1.420   .     A
N266   N349    1.420   .     A
N267   N272    1.420   .     A
N267   N268    1.420   .     A
N268   N269    1.420   .     A
N269   N270    1.420   .     A
N270   N273    1.420   .     A
N270   N353    1.420   .     A
N271   N276    1.420   .     A
N271   N272    1.420   .     A
N272   N273    1.420   .     A
N273   N274    1.420   .     A
N274   N277    1.420   .     A
N274   N357    1.420   .     A
N275   N280    1.420   .     A
N275   N276    1.420   .     A
N276   N277    1.420   .     A
N277   N278    1.420   .     A
N278   N281    1.420   .     A
N278   N361    1.420   .     A
N279   N284    1.420   .     A
N279   N280    1.420   .     A
N280   N281    1.420   .     A
N281   N282    1.420   .     A
N282   N285    1.420   .     A
N282   N365    1.420   .     A
N283   N288    1.420   .     A
N283   N284    1.420   .     A
N284   N285    1.420   .     A
N285   N286    1.420   .     A
N286   N289    1.420   .     A
N286   N369    1.420   .     A
N287   N292    1.420   .     A
N287   N288    1.420   .     A
N288   N289    1.420   .     A
N289   N290    1.420   .     A
N290   N293    1.420   .     A
N290   N373    1.420   .     A
N291   N296    1.420   .     A
N291   N292    1.420   .     A
N292   N293    1.420   .     A
N293   N294    1.420   .     A
N294   N297    1.420   .     A
N294   N377    1.420   .     A
N295   N300    1.420   .     A
N295   N296    1.420   .     A
N296   N297    1.420   .     A
N297   N298    1.420   .     A
N298   N301    1.420   .     A
N298   N381    1.420   .     A
N299   N304    1.420   .     A
N299   N300    1.420   .     A
N300   N301    1.420   .     A
N301   N302    1.420   .     A
N302   N305    1.420   .     A
N302   N385    1.420   .     A
N303   N308    1.420   .     A
N303   N304    1.420   .     A
N304   N305    1.420   .     A
N305   N306    1.420   .     A
N306   N309    1.420   .     A
N306   N389    1.420   .     A
N307   N312    1.420   .     A
N307   N308    1.420   .     A
N308   N309    1.420   .     A
N309   N310    1.420   .     A
N310   N313    1.420   .     A
N310   N393    1.420   .     A
N311   N316    1.420   .     A
N311   N312    1.420   .     A
N312   N313    1.420   .     A
N313   N314    1.420   .     A
N314   N317    1.420   .     A
N314   N397    1.420   .     A
N315   N320    1.420   .     A
N315   N316    1.420   .     A
N316   N317    1.420   .     A
N317   N318    1.420   .     A
N318   N321    1.420   .     A
N318   N401    1.420   .     A
N319   N324    1.420   .     A
N319   N320    1.420   .     A
N320   N321    1.420   .     A
N321   N322    1.420   .     A
N322   N325    1.420   .     A
N322   N405    1.420   .     A
N323   N328    1.420   .     A
N323   N324    1.420   .     A
N324   N325    1.420   .     A
N325   N326    1.420   .     A
N326   N329    1.420   .     A
N326   N409    1.420   .     A
N327   N332    1.420   .     A
N327   N328    1.420   .     A
N328   N329    1.420   .     A
N329   N330    1.420   .     A
N330   N333    1.420   .     A
N330   N413    1.420   .     A
N331   N336    1.420   .     A
N331   N332    1.420   .     A
N332   N333    1.420   .     A
N333   N334    1.420   .     A
N334   N337    1.420   .     A
N334   N417    1.420   .     A
N335   N339    1.420   .     A
N335   N336    1.420   .     A
N336   N337    1.420   .     A
N337   N338    1.420   .     A
N338   N340    1.420   .     A
N338   N421    1.420   .     A
N339   N340    1.420   .     A
N339   H343    1.140   .     S
N340   H344    1.140   .     S
N345   N350    1.420   .     A
N345   N346    1.420   .     A
N346   N347    1.420   .     A
N346   H427    1.140   .     S
N347   N348    1.420   .     A
N347   H428    1.140   .     S
N348   N351    1.420   .     A
N348   H1081   1.140   .     S
N349   N354    1.420   .     A
N349   N350    1.420   .     A
N350   N351    1.420   .     A
N351   N352    1.420   .     A
N352   N355    1.420   .     A
N352   H1082   1.140   .     S
N353   N358    1.420   .     A
N353   N354    1.420   .     A
N354   N355    1.420   .     A
N355   N356    1.420   .     A
N356   N359    1.420   .     A
N356   H1083   1.140   .     S
N357   N362    1.420   .     A
N357   N358    1.420   .     A
N358   N359    1.420   .     A
N359   N360    1.420   .     A
N360   N363    1.420   .     A
N360   H1084   1.140   .     S
N361   N366    1.420   .     A
N361   N362    1.420   .     A
N362   N363    1.420   .     A
N363   N364    1.420   .     A
N364   N367    1.420   .     A
N364   H1085   1.140   .     S
N365   N370    1.420   .     A
N365   N366    1.420   .     A
N366   N367    1.420   .     A
N367   N368    1.420   .     A
N368   N371    1.420   .     A
N368   H1086   1.140   .     S
N369   N374    1.420   .     A
N369   N370    1.420   .     A
N370   N371    1.420   .     A
N371   N372    1.420   .     A
N372   N375    1.420   .     A
N372   H1087   1.140   .     S
N373   N378    1.420   .     A
N373   N374    1.420   .     A
N374   N375    1.420   .     A
N375   N376    1.420   .     A
N376   N379    1.420   .     A
N376   C431    1.420   .     A
N377   N382    1.420   .     A
N377   N378    1.420   .     A
N378   N379    1.420   .     A
N379   N380    1.420   .     A
N380   N383    1.420   .     A
N380   C433    1.420   .     A
N381   N386    1.420   .     A
N381   N382    1.420   .     A
N382   N383    1.420   .     A
N383   N384    1.420   .     A
N384   N387    1.420   .     A
N384   C437    1.420   .     A
N385   N390    1.420   .     A
N385   N386    1.420   .     A
N386   N387    1.420   .     A
N387   N388    1.420   .     A
N388   N391    1.420   .     A
N388   C441    1.420   .     A
N389   N394    1.420   .     A
N389   N390    1.420   .     A
N390   N391    1.420   .     A
N391   N392    1.420   .     A
N392   N395    1.420   .     A
N392   C445    1.420   .     A
N393   N398    1.420   .     A
N393   N394    1.420   .     A
N394   N395    1.420   .     A
N395   N396    1.420   .     A
N396   N399    1.420   .     A
N396   C449    1.420   .     A
N397   N402    1.420   .     A
N397   N398    1.420   .     A
N398   N399    1.420   .     A
N399   N400    1.420   .     A
N400   N403    1.420   .     A
N400   H1088   1.140   .     S
N401   N406    1.420   .     A
N401   N402    1.420   .     A
N402   N403    1.420   .     A
N403   N404    1.420   .     A
N404   N407    1.420   .     A
N404   H1089   1.140   .     S
N405   N410    1.420   .     A
N405   N406    1.420   .     A
N406   N407    1.420   .     A
N407   N408    1.420   .     A
N408   N411    1.420   .     A
N408   H1090   1.140   .     S
N409   N414    1.420   .     A
N409   N410    1.420   .     A
N410   N411    1.420   .     A
N411   N412    1.420   .     A
N412   N415    1.420   .     A
N412   H1091   1.140   .     S
N413   N418    1.420   .     A
N413   N414    1.420   .     A
N414   N415    1.420   .     A
N415   N416    1.420   .     A
N416   N419    1.420   .     A
N416   H1092   1.140   .     S
N417   N422    1.420   .     A
N417   N418    1.420   .     A
N418   N419    1.420   .     A
N419   N420    1.420   .     A
N420   N423    1.420   .     A
N420   H1093   1.140   .     S
N421   N425    1.420   .     A
N421   N422    1.420   .     A
N422   N423    1.420   .     A
N423   N424    1.420   .     A
N424   N426    1.420   .     A
N424   H1094   1.140   .     S
N425   N426    1.420   .     A
N425   H429    1.140   .     S
N426   H430    1.140   .     S
C431   C434    1.420   .     A
C431   H1095   1.140   .     S
C432   C435    1.420   .     A
C432   C453    1.420   .     A
C432   H1096   1.140   .     S
C433   C438    1.420   .     A
C433   C434    1.420   .     A
C434   C435    1.420   .     A
C435   C436    1.420   .     A
C436   C439    1.420   .     A
C436   C455    1.420   .     A
C437   C442    1.420   .     A
C437   C438    1.420   .     A
C438   C439    1.420   .     A
C439   C440    1.420   .     A
C440   C443    1.420   .     A
C440   C459    1.420   .     A
C441   C446    1.420   .     A
C441   C442    1.420   .     A
C442   C443    1.420   .     A
C443   C444    1.420   .     A
C444   C447    1.420   .     A
C444   C463    1.420   .     A
C445   C450    1.420   .     A
C445   C446    1.420   .     A
C446   C447    1.420   .     A
C447   C448    1.420   .     A
C448   C451    1.420   .     A
C448   C467    1.420   .     A
C449   C450    1.420   .     A
C449   H1097   1.140   .     S
C450   C451    1.420   .     A
C451   C452    1.420   .     A
C452   C471    1.420   .     A
C452   H1098   1.140   .     S
C453   C456    1.420   .     A
C453   H1099   1.140   .     S
C454   C457    1.420   .     A
C454   C475    1.420   .     A
C454   H1100   1.140   .     S
C455   C460    1.420   .     A
C455   C456    1.420   .     A
C456   C457    1.420   .     A
C457   C458    1.420   .     A
C458   C461    1.420   .     A
C458   C477    1.420   .     A
C459   C464    1.420   .     A
C459   C460    1.420   .     A
C460   C461    1.420   .     A
C461   C462    1.420   .     A
C462   C465    1.420   .     A
C462   C481    1.420   .     A
C463   C468    1.420   .     A
C463   C464    1.420   .     A
C464   C465    1.420   .     A
C465   C466    1.420   .     A
C466   C469    1.420   .     A
C466   C485    1.420   .     A
C467   C472    1.420   .     A
C467   C468    1.420   .     A
C468   C469    1.420   .     A
C469   C470    1.420   .     A
C470   C473    1.420   .     A
C470   C489    1.420   .     A
C471   C472    1.420   .     A
C471   H1101   1.140   .     S
C472   C473    1.420   .     A
C473   C474    1.420   .     A
C474   C493    1.420   .     A
C474   H1102   1.140   .     S
C475   C478    1.420   .     A
C475   H1103   1.140   .     S
C476   C479    1.420   .     A
C476   C497    1.420   .     A
C476   H1104   1.140   .     S
C477   C482    1.420   .     A
C477   C478    1.420   .     A
C478   C479    1.420   .     A
C479   C480    1.420   .     A
C480   C483    1.420   .     A
C480   C499    1.420   .     A
C481   C486    1.420   .     A
C481   C482    1.420   .     A
C482   C483    1.420   .     A
C483   C484    1.420   .     A
C484   C487    1.420   .     A
C484   C503    1.420   .     A
C485   C490    1.420   .     A
C485   C486    1.420   .     A
C486   C487    1.420   .     A
C487   C488    1.420   .     A
C488   C491    1.420   .     A
C488   C507    1.420   .     A
C489   C494    1.420   .     A
C489   C490    1.420   .     A
C490   C491    1.420   .     A
C491   C492    1.420   .     A
C492   C495    1.420   .     A
C492   C511    1.420   .     A
C493   C494    1.420   .     A
C493   H1105   1.140   .     S
C494   C495    1.420   .     A
C495   C496    1.420   .     A
C496   C515    1.420   .     A
C496   H1106   1.140   .     S
C497   C500    1.420   .     A
C497   H1107   1.140   .     S
C498   C501    1.420   .     A
C498   C519    1.420   .     A
C498   H1108   1.140   .     S
C499   C504    1.420   .     A
C499   C500    1.420   .     A
C500   C501    1.420   .     A
C501   C502    1.420   .     A
C502   C505    1.420   .     A
C502   C521    1.420   .     A
C503   C508    1.420   .     A
C503   C504    1.420   .     A
C504   C505    1.420   .     A
C505   C506    1.420   .     A
C506   C509    1.420   .     A
C506   C525    1.420   .     A
C507   C512    1.420   .     A
C507   C508    1.420   .     A
C508   C509    1.420   .     A
C509   C510    1.420   .     A
C510   C513    1.420   .     A
C510   C529    1.420   .     A
C511   C516    1.420   .     A
C511   C512    1.420   .     A
C512   C513    1.420   .     A
C513   C514    1.420   .     A
C514   C517    1.420   .     A
C514   C533    1.420   .     A
C515   C516    1.420   .     A
C515   H1109   1.140   .     S
C516   C517    1.420   .     A
C517   C518    1.420   .     A
C518   C537    1.420   .     A
C518   H1110   1.140   .     S
C519   C522    1.420   .     A
C519   H1111   1.140   .     S
C520   C523    1.420   .     A
C520   C541    1.420   .     A
C520   H1112   1.140   .     S
C521   C526    1.420   .     A
C521   C522    1.420   .     A
C522   C523    1.420   .     A
C523   C524    1.420   .     A
C524   C527    1.420   .     A
C524   C543    1.420   .     A
C525   C530    1.420   .     A
C525   C526    1.420   .     A
C526   C527    1.420   .     A
C527   C528    1.420   .     A
C528   C531    1.420   .     A
C528   C547    1.420   .     A
C529   C534    1.420   .     A
C529   C530    1.420   .     A
C530   C531    1.420   .     A
C531   C532    1.420   .     A
C532   C535    1.420   .     A
C532   C551    1.420   .     A
C533   C538    1.420   .     A
C533   C534    1.420   .     A
C534   C535    1.420   .     A
C535   C536    1.420   .     A
C536   C539    1.420   .     A
C536   C555    1.420   .     A
C537   C538    1.420   .     A
C537   H1113   1.140   .     S
C538   C539    1.420   .     A
C539   C540    1.420   .     A
C540   C559    1.420   .     A
C540   H1114   1.140   .     S
C541   C544    1.420   .     A
C541   H1115   1.140   .     S
C542   C545    1.420   .     A
C542   C563    1.420   .     A
C542   H1116   1.140   .     S
C543   C548    1.420   .     A
C543   C544    1.420   .     A
C544   C545    1.420   .     A
C545   C546    1.420   .     A
C546   C549    1.420   .     A
C546   C565    1.420   .     A
C547   C552    1.420   .     A
C547   C548    1.420   .     A
C548   C549    1.420   .     A
C549   C550    1.420   .     A
C550   C553    1.420   .     A
C550   C569    1.420   .     A
C551   C556    1.420   .     A
C551   C552    1.420   .     A
C552   C553    1.420   .     A
C553   C554    1.420   .     A
C554   C557    1.420   .     A
C554   C573    1.420   .     A
C555   C560    1.420   .     A
C555   C556    1.420   .     A
C556   C557    1.420   .     A
C557   C558    1.420   .     A
C558   C561    1.420   .     A
C558   C577    1.420   .     A
C559   C560    1.420   .     A
C559   H1117   1.140   .     S
C560   C561    1.420   .     A
C561   C562    1.420   .     A
C562   C581    1.420   .     A
C562   H1118   1.140   .     S
C563   C566    1.420   .     A
C563   H1119   1.140   .     S
C564   C567    1.420   .     A
C564   C585    1.420   .     A
C564   H1120   1.140   .     S
C565   C570    1.420   .     A
C565   C566    1.420   .     A
C566   C567    1.420   .     A
C567   C568    1.420   .     A
C568   C571    1.420   .     A
C568   C587    1.420   .     A
C569   C574    1.420   .     A
C569   C570    1.420   .     A
C570   C571    1.420   .     A
C571   C572    1.420   .     A
C572   C575    1.420   .     A
C572   C591    1.420   .     A
C573   C578    1.420   .     A
C573   C574    1.420   .     A
C574   C575    1.420   .     A
C575   C576    1.420   .     A
C576   C579    1.420   .     A
C576   C595    1.420   .     A
C577   C582    1.420   .     A
C577   C578    1.420   .     A
C578   C579    1.420   .     A
C579   C580    1.420   .     A
C580   C583    1.420   .     A
C580   C599    1.420   .     A
C581   C582    1.420   .     A
C581   H1121   1.140   .     S
C582   C583    1.420   .     A
C583   C584    1.420   .     A
C584   C603    1.420   .     A
C584   H1122   1.140   .     S
C585   C588    1.420   .     A
C585   H1123   1.140   .     S
C586   C589    1.420   .     A
C586   C607    1.420   .     A
C586   H1124   1.140   .     S
C587   C592    1.420   .     A
C587   C588    1.420   .     A
C588   C589    1.420   .     A
C589   C590    1.420   .     A
C590   C593    1.420   .     A
C590   C609    1.420   .     A
C591   C596    1.420   .     A
C591   C592    1.420   .     A
C592   C593    1.420   .     A
C593   C594    1.420   .     A
C594   C597    1.420   .     A
C594   C613    1.420   .     A
C595   C600    1.420   .     A
C595   C596    1.420   .     A
C596   C597    1.420   .     A
C597   C598    1.420   .     A
C598   C601    1.420   .     A
C598   C617    1.420   .     A
C599   C604    1.420   .     A
C599   C600    1.420   .     A
C600   C601    1.420   .     A
C601   C602    1.420   .     A
C602   C605    1.420   .     A
C602   C621    1.420   .     A
C603   C604    1.420   .     A
C603   H1125   1.140   .     S
C604   C605    1.420   .     A
C605   C606    1.420   .     A
C606   C625    1.420   .     A
C606   H1126   1.140   .     S
C607   C610    1.420   .     A
C607   H1127   1.140   .     S
C608   C611    1.420   .     A
C608   C629    1.420   .     A
C608   H1128   1.140   .     S
C609   C614    1.420   .     A
C609   C610    1.420   .     A
C610   C611    1.420   .     A
C611   C612    1.420   .     A
C612   C615    1.420   .     A
C612   C631    1.420   .     A
C613   C618    1.420   .     A
C613   C614    1.420   .     A
C614   C615    1.420   .     A
C615   C616    1.420   .     A
C616   C619    1.420   .     A
C616   C635    1.420   .     A
C617   C622    1.420   .     A
C617   C618    1.420   .     A
C618   C619    1.420   .     A
C619   C620    1.420   .     A
C620   C623    1.420   .     A
C620   C639    1.420   .     A
C621   C626    1.420   .     A
C621   C622    1.420   .     A
C622   C623    1.420   .     A
C623   C624    1.420   .     A
C624   C627    1.420   .     A
C624   C643    1.420   .     A
C625   C626    1.420   .     A
C625   H1129   1.140   .     S
C626   C627    1.420   .     A
C627   C628    1.420   .     A
C628   C647    1.420   .     A
C628   H1130   1.140   .     S
C629   C632    1.420   .     A
C629   H1131   1.140   .     S
C630   C633    1.420   .     A
C630   N679    1.420   .     A
C630   H1132   1.140   .     S
C631   C636    1.420   .     A
C631   C632    1.420   .     A
C632   C633    1.420   .     A
C633   C634    1.420   .     A
C634   C637    1.420   .     A
C634   N683    1.420   .     A
C635   C640    1.420   .     A
C635   C636    1.420   .     A
C636   C637    1.420   .     A
C637   C638    1.420   .     A
C638   C641    1.420   .     A
C638   N687    1.420   .     A
C639   C644    1.420   .     A
C639   C640    1.420   .     A
C640   C641    1.420   .     A
C641   C642    1.420   .     A
C642   C645    1.420   .     A
C642   N691    1.420   .     A
C643   C648    1.420   .     A
C643   C644    1.420   .     A
C644   C645    1.420   .     A
C645   C646    1.420   .     A
C646   C649    1.420   .     A
C646   N695    1.420   .     A
C647   C648    1.420   .     A
C647   H1133   1.140   .     S
C648   C649    1.420   .     A
C649   C650    1.420   .     A
C650   N699    1.420   .     A
C650   H1134   1.140   .     S
N651   N656    1.420   .     A
N651   N652    1.420   .     A
N651   H1135   1.140   .     S
N652   N653    1.420   .     A
N652   H733    1.140   .     S
N653   N654    1.420   .     A
N653   H734    1.140   .     S
N654   N657    1.420   .     A
N654   N737    1.420   .     A
N655   N660    1.420   .     A
N655   N656    1.420   .     A
N655   H1136   1.140   .     S
N656   N657    1.420   .     A
N657   N658    1.420   .     A
N658   N661    1.420   .     A
N658   N741    1.420   .     A
N659   N664    1.420   .     A
N659   N660    1.420   .     A
N659   H1137   1.140   .     S
N660   N661    1.420   .     A
N661   N662    1.420   .     A
N662   N665    1.420   .     A
N662   N745    1.420   .     A
N663   N668    1.420   .     A
N663   N664    1.420   .     A
N663   H1138   1.140   .     S
N664   N665    1.420   .     A
N665   N666    1.420   .     A
N666   N669    1.420   .     A
N666   N749    1.420   .     A
N667   N672    1.420   .     A
N667   N668    1.420   .     A
N667   H1139   1.140   .     S
N668   N669    1.420   .     A
N669   N670    1.420   .     A
N670   N673    1.420   .     A
N670   N753    1.420   .     A
N671   N676    1.420   .     A
N671   N672    1.420   .     A
N671   H1140   1.140   .     S
N672   N673    1.420   .     A
N673   N674    1.420   .     A
N674   N677    1.420   .     A
N674   N757    1.420   .     A
N675   N680    1.420   .     A
N675   N676    1.420   .     A
N675   H1141   1.140   .     S
N676   N677    1.420   .     A
N677   N678    1.420   .     A
N678   N681    1.420   .     A
N678   N761    1.420   .     A
N679   N684    1.420   .     A
N679   N680    1.420   .     A
N680   N681    1.420   .     A
N681   N682    1.420   .     A
N682   N685    1.420   .     A
N682   N765    1.420   .     A
N683   N688    1.420   .     A
N683   N684    1.420   .     A
N684   N685    1.420   .     A
N685   N686    1.420   .     A
N686   N689    1.420   .     A
N686   N769    1.420   .     A
N687   N692    1.420   .     A
N687   N688    1.420   .     A
N688   N689    1.420   .     A
N689   N690    1.420   .     A
N690   N693    1.420   .     A
N690   N773    1.420   .     A
N691   N696    1.420   .     A
N691   N692    1.420   .     A
N692   N693    1.420   .     A
N693   N694    1.420   .     A
N694   N697    1.420   .     A
N694   N777    1.420   .     A
N695   N700    1.420   .     A
N695   N696    1.420   .     A
N696   N697    1.420   .     A
N697   N698    1.420   .     A
N698   N701    1.420   .     A
N698   N781    1.420   .     A
N699   N704    1.420   .     A
N699   N700    1.420   .     A
N700   N701    1.420   .     A
N701   N702    1.420   .     A
N702   N705    1.420   .     A
N702   N785    1.420   .     A
N703   N708    1.420   .     A
N703   N704    1.420   .     A
N703   H1142   1.140   .     S
N704   N705    1.420   .     A
N705   N706    1.420   .     A
N706   N709    1.420   .     A
N706   N789    1.420   .     A
N707   N712    1.420   .     A
N707   N708    1.420   .     A
N707   H1143   1.140   .     S
N708   N709    1.420   .     A
N709   N710    1.420   .     A
N710   N713    1.420   .     A
N710   N793    1.420   .     A
N711   N716    1.420   .     A
N711   N712    1.420   .     A
N711   H1144   1.140   .     S
N712   N713    1.420   .     A
N713   N714    1.420   .     A
N714   N717    1.420   .     A
N714   N797    1.420   .     A
N715   N720    1.420   .     A
N715   N716    1.420   .     A
N715   H1145   1.140   .     S
N716   N717    1.420   .     A
N717   N718    1.420   .     A
N718   N721    1.420   .     A
N718   N801    1.420   .     A
N719   N724    1.420   .     A
N719   N720    1.420   .     A
N719   H1146   1.140   .     S
N720   N721    1.420   .     A
N721   N722    1.420   .     A
N722   N725    1.420   .     A
N722   N805    1.420   .     A
N723   N728    1.420   .     A
N723   N724    1.420   .     A
N723   H1147   1.140   .     S
N724   N725    1.420   .     A
N725   N726    1.420   .     A
N726   N729    1.420   .     A
N726   N809    1.420   .     A
N727   N731    1.420   .     A
N727   N728    1.420   .     A
N727   H1148   1.140   .     S
N728   N729    1.420   .     A
N729   N730    1.420   .     A
N730   N732    1.420   .     A
N730   N813    1.420   .     A
N731   N732    1.420   .     A
N731   H735    1.140   .     S
N732   H736    1.140   .     S
N737   N742    1.420   .     A
N737   N738    1.420   .     A
N738   N739    1.420   .     A
N738   H819    1.140   .     S
N739   N740    1.420   .     A
N739   H820    1.140   .     S
N740   N743    1.420   .     A
N740   N823    1.420   .     A
N741   N746    1.420   .     A
N741   N742    1.420   .     A
N742   N743    1.420   .     A
N743   N744    1.420   .     A
N744   N747    1.420   .     A
N744   N827    1.420   .     A
N745   N750    1.420   .     A
N745   N746    1.420   .     A
N746   N747    1.420   .     A
N747   N748    1.420   .     A
N748   N751    1.420   .     A
N748   N831    1.420   .     A
N749   N754    1.420   .     A
N749   N750    1.420   .     A
N750   N751    1.420   .     A
N751   N752    1.420   .     A
N752   N755    1.420   .     A
N752   N835    1.420   .     A
N753   N758    1.420   .     A
N753   N754    1.420   .     A
N754   N755    1.420   .     A
N755   N756    1.420   .     A
N756   N759    1.420   .     A
N756   N839    1.420   .     A
N757   N762    1.420   .     A
N757   N758    1.420   .     A
N758   N759    1.420   .     A
N759   N760    1.420   .     A
N760   N763    1.420   .     A
N760   N843    1.420   .     A
N761   N766    1.420   .     A
N761   N762    1.420   .     A
N762   N763    1.420   .     A
N763   N764    1.420   .     A
N764   N767    1.420   .     A
N764   N847    1.420   .     A
N765   N770    1.420   .     A
N765   N766    1.420   .     A
N766   N767    1.420   .     A
N767   N768    1.420   .     A
N768   N771    1.420   .     A
N768   N851    1.420   .     A
N769   N774    1.420   .     A
N769   N770    1.420   .     A
N770   N771    1.420   .     A
N771   N772    1.420   .     A
N772   N775    1.420   .     A
N772   N855    1.420   .     A
N773   N778    1.420   .     A
N773   N774    1.420   .     A
N774   N775    1.420   .     A
N775   N776    1.420   .     A
N776   N779    1.420   .     A
N776   N859    1.420   .     A
N777   N782    1.420   .     A
N777   N778    1.420   .     A
N778   N779    1.420   .     A
N779   N780    1.420   .     A
N780   N783    1.420   .     A
N780   N863    1.420   .     A
N781   N786    1.420   .     A
N781   N782    1.420   .     A
N782   N783    1.420   .     A
N783   N784    1.420   .     A
N784   N787    1.420   .     A
N784   N867    1.420   .     A
N785   N790    1.420   .     A
N785   N786    1.420   .     A
N786   N787    1.420   .     A
N787   N788    1.420   .     A
N788   N791    1.420   .     A
N788   N871    1.420   .     A
N789   N794    1.420   .     A
N789   N790    1.420   .     A
N790   N791    1.420   .     A
N791   N792    1.420   .     A
N792   N795    1.420   .     A
N792   N875    1.420   .     A
N793   N798    1.420   .     A
N793   N794    1.420   .     A
N794   N795    1.420   .     A
N795   N796    1.420   .     A
N796   N799    1.420   .     A
N796   N879    1.420   .     A
N797   N802    1.420   .     A
N797   N798    1.420   .     A
N798   N799    1.420   .     A
N799   N800    1.420   .     A
N800   N803    1.420   .     A
N800   N883    1.420   .     A
N801   N806    1.420   .     A
N801   N802    1.420   .     A
N802   N803    1.420   .     A
N803   N804    1.420   .     A
N804   N807    1.420   .     A
N804   N887    1.420   .     A
N805   N810    1.420   .     A
N805   N806    1.420   .     A
N806   N807    1.420   .     A
N807   N808    1.420   .     A
N808   N811    1.420   .     A
N808   N891    1.420   .     A
N809   N814    1.420   .     A
N809   N810    1.420   .     A
N810   N811    1.420   .     A
N811   N812    1.420   .     A
N812   N815    1.420   .     A
N812   N895    1.420   .     A
N813   N817    1.420   .     A
N813   N814    1.420   .     A
N814   N815    1.420   .     A
N815   N816    1.420   .     A
N816   N818    1.420   .     A
N816   N899    1.420   .     A
N817   N818    1.420   .     A
N817   H821    1.140   .     S
N818   H822    1.140   .     S
N823   N828    1.420   .     A
N823   N824    1.420   .     A
N824   N825    1.420   .     A
N824   H905    1.140   .     S
N825   N826    1.420   .     A
N825   H906    1.140   .     S
N826   N829    1.420   .     A
N826   N909    1.420   .     A
N827   N832    1.420   .     A
N827   N828    1.420   .     A
N828   N829    1.420   .     A
N829   N830    1.420   .     A
N830   N833    1.420   .     A
N830   N913    1.420   .     A
N831   N836    1.420   .     A
N831   N832    1.420   .     A
N832   N833    1.420   .     A
N833   N834    1.420   .     A
N834   N837    1.420   .     A
N834   N917    1.420   .     A
N835   N840    1.420   .     A
N835   N836    1.420   .     A
N836   N837    1.420   .     A
N837   N838    1.420   .     A
N838   N841    1.420   .     A
N838   N921    1.420   .     A
N839   N844    1.420   .     A
N839   N840    1.420   .     A
N840   N841    1.420   .     A
N841   N842    1.420   .     A
N842   N845    1.420   .     A
N842   N925    1.420   .     A
N843   N848    1.420   .     A
N843   N844    1.420   .     A
N844   N845    1.420   .     A
N845   N846    1.420   .     A
N846   N849    1.420   .     A
N846   N929    1.420   .     A
N847   N852    1.420   .     A
N847   N848    1.420   .     A
N848   N849    1.420   .     A
N849   N850    1.420   .     A
N850   N853    1.420   .     A
N850   N933    1.420   .     A
N851   N856    1.420   .     A
N851   N852    1.420   .     A
N852   N853    1.420   .     A
N853   N854    1.420   .     A
N854   N857    1.420   .     A
N854   N937    1.420   .     A
N855   N860    1.420   .     A
N855   N856    1.420   .     A
N856   N857    1.420   .     A
N857   N858    1.420   .     A
N858   N861    1.420   .     A
N858   N941    1.420   .     A
N859   N864    1.420   .     A
N859   N860    1.420   .     A
N860   N861    1.420   .     A
N861   N862    1.420   .     A
N862   N865    1.420   .     A
N862   N945    1.420   .     A
N863   N868    1.420   .     A
N863   N864    1.420   .     A
N864   N865    1.420   .     A
N865   N866    1.420   .     A
N866   N869    1.420   .     A
N866   N949    1.420   .     A
N867   N872    1.420   .     A
N867   N868    1.420   .     A
N868   N869    1.420   .     A
N869   N870    1.420   .     A
N870   N873    1.420   .     A
N870   N953    1.420   .     A
N871   N876    1.420   .     A
N871   N872    1.420   .     A
N872   N873    1.420   .     A
N873   N874    1.420   .     A
N874   N877    1.420   .     A
N874   N957    1.420   .     A
N875   N880    1.420   .     A
N875   N876    1.420   .     A
N876   N877    1.420   .     A
N877   N878    1.420   .     A
N878   N881    1.420   .     A
N878   N961    1.420   .     A
N879   N884    1.420   .     A
N879   N880    1.420   .     A
N880   N881    1.420   .     A
N881   N882    1.420   .     A
N882   N885    1.420   .     A
N882   N965    1.420   .     A
N883   N888    1.420   .     A
N883   N884    1.420   .     A
N884   N885    1.420   .     A
N885   N886    1.420   .     A
N886   N889    1.420   .     A
N886   N969    1.420   .     A
N887   N892    1.420   .     A
N887   N888    1.420   .     A
N888   N889    1.420   .     A
N889   N890    1.420   .     A
N890   N893    1.420   .     A
N890   N973    1.420   .     A
N891   N896    1.420   .     A
N891   N892    1.420   .     A
N892   N893    1.420   .     A
N893   N894    1.420   .     A
N894   N897    1.420   .     A
N894   N977    1.420   .     A
N895   N900    1.420   .     A
N895   N896    1.420   .     A
N896   N897    1.420   .     A
N897   N898    1.420   .     A
N898   N901    1.420   .     A
N898   N981    1.420   .     A
N899   N903    1.420   .     A
N899   N900    1.420   .     A
N900   N901    1.420   .     A
N901   N902    1.420   .     A
N902   N904    1.420   .     A
N902   N985    1.420   .     A
N903   N904    1.420   .     A
N903   H907    1.140   .     S
N904   H908    1.140   .     S
N909   N914    1.420   .     A
N909   N910    1.420   .     A
N910   N911    1.420   .     A
N910   H991    1.140   .     S
N911   N912    1.420   .     A
N911   H992    1.140   .     S
N912   N915    1.420   .     A
N912   N995    1.420   .     A
N913   N918    1.420   .     A
N913   N914    1.420   .     A
N914   N915    1.420   .     A
N915   N916    1.420   .     A
N916   N919    1.420   .     A
N916   N999    1.420   .     A
N917   N922    1.420   .     A
N917   N918    1.420   .     A
N918   N919    1.420   .     A
N919   N920    1.420   .     A
N920   N923    1.420   .     A
N920   N1003   1.420   .     A
N921   N926    1.420   .     A
N921   N922    1.420   .     A
N922   N923    1.420   .     A
N923   N924    1.420   .     A
N924   N927    1.420   .     A
N924   N1007   1.420   .     A
N925   N930    1.420   .     A
N925   N926    1.420   .     A
N926   N927    1.420   .     A
N927   N928    1.420   .     A
N928   N931    1.420   .     A
N928   N1011   1.420   .     A
N929   N934    1.420   .     A
N929   N930    1.420   .     A
N930   N931    1.420   .     A
N931   N932    1.420   .     A
N932   N935    1.420   .     A
N932   N1015   1.420   .     A
N933   N938    1.420   .     A
N933   N934    1.420   .     A
N934   N935    1.420   .     A
N935   N936    1.420   .     A
N936   N939    1.420   .     A
N936   N1019   1.420   .     A
N937   N942    1.420   .     A
N937   N938    1.420   .     A
N938   N939    1.420   .     A
N939   N940    1.420   .     A
N940   N943    1.420   .     A
N940   N1023   1.420   .     A
N941   N946    1.420   .     A
N941   N942    1.420   .     A
N942   N943    1.420   .     A
N943   N944    1.420   .     A
N944   N947    1.420   .     A
N944   N1027   1.420   .     A
N945   N950    1.420   .     A
N945   N946    1.420   .     A
N946   N947    1.420   .     A
N947   N948    1.420   .     A
N948   N951    1.420   .     A
N948   N1031   1.420   .     A
N949   N954    1.420   .     A
N949   N950    1.420   .     A
N950   N951    1.420   .     A
N951   N952    1.420   .     A
N952   N955    1.420   .     A
N952   N1035   1.420   .     A
N953   N958    1.420   .     A
N953   N954    1.420   .     A
N954   N955    1.420   .     A
N955   N956    1.420   .     A
N956   N959    1.420   .     A
N956   N1039   1.420   .     A
N957   N962    1.420   .     A
N957   N958    1.420   .     A
N958   N959    1.420   .     A
N959   N960    1.420   .     A
N960   N963    1.420   .     A
N960   N1043   1.420   .     A
N961   N966    1.420   .     A
N961   N962    1.420   .     A
N962   N963    1.420   .     A
N963   N964    1.420   .     A
N964   N967    1.420   .     A
N964   N1047   1.420   .     A
N965   N970    1.420   .     A
N965   N966    1.420   .     A
N966   N967    1.420   .     A
N967   N968    1.420   .     A
N968   N971    1.420   .     A
N968   N1051   1.420   .     A
N969   N974    1.420   .     A
N969   N970    1.420   .     A
N970   N971    1.420   .     A
N971   N972    1.420   .     A
N972   N975    1.420   .     A
N972   N1055   1.420   .     A
N973   N978    1.420   .     A
N973   N974    1.420   .     A
N974   N975    1.420   .     A
N975   N976    1.420   .     A
N976   N979    1.420   .     A
N976   N1059   1.420   .     A
N977   N982    1.420   .     A
N977   N978    1.420   .     A
N978   N979    1.420   .     A
N979   N980    1.420   .     A
N980   N983    1.420   .     A
N980   N1063   1.420   .     A
N981   N986    1.420   .     A
N981   N982    1.420   .     A
N982   N983    1.420   .     A
N983   N984    1.420   .     A
N984   N987    1.420   .     A
N984   N1067   1.420   .     A
N985   N989    1.420   .     A
N985   N986    1.420   .     A
N986   N987    1.420   .     A
N987   N988    1.420   .     A
N988   N990    1.420   .     A
N988   N1071   1.420   .     A
N989   N990    1.420   .     A
N989   H993    1.140   .     S
N990   H994    1.140   .     S
N995   N1000   1.420   .     A
N995   N996    1.420   .     A
N996   N997    1.420   .     A
N996   H1077   1.140   .     S
N997   N998    1.420   .     A
N997   H1078   1.140   .     S
N998   N1001   1.420   .     A
N998   N1      1.420   1_565 A
N999   N1004   1.420   .     A
N999   N1000   1.420   .     A
N1000  N1001   1.420   .     A
N1001  N1002   1.420   .     A
N1002  N1005   1.420   .     A
N1002  N5      1.420   1_565 A
N1003  N1008   1.420   .     A
N1003  N1004   1.420   .     A
N1004  N1005   1.420   .     A
N1005  N1006   1.420   .     A
N1006  N1009   1.420   .     A
N1006  N9      1.420   1_565 A
N1007  N1012   1.420   .     A
N1007  N1008   1.420   .     A
N1008  N1009   1.420   .     A
N1009  N1010   1.420   .     A
N1010  N1013   1.420   .     A
N1010  N13     1.420   1_565 A
N1011  N1016   1.420   .     A
N1011  N1012   1.420   .     A
N1012  N1013   1.420   .     A
N1013  N1014   1.420   .     A
N1014  N1017   1.420   .     A
N1014  N17     1.420   1_565 A
N1015  N1020   1.420   .     A
N1015  N1016   1.420   .     A
N1016  N1017   1.420   .     A
N1017  N1018   1.420   .     A
N1018  N1021   1.420   .     A
N1018  N21     1.420   1_565 A
N1019  N1024   1.420   .     A
N1019  N1020   1.420   .     A
N1020  N1021   1.420   .     A
N1021  N1022   1.420   .     A
N1022  N1025   1.420   .     A
N1022  N25     1.420   1_565 A
N1023  N1028   1.420   .     A
N1023  N1024   1.420   .     A
N1024  N1025   1.420   .     A
N1025  N1026   1.420   .     A
N1026  N1029   1.420   .     A
N1026  N29     1.420   1_565 A
N1027  N1032   1.420   .     A
N1027  N1028   1.420   .     A
N1028  N1029   1.420   .     A
N1029  N1030   1.420   .     A
N1030  N1033   1.420   .     A
N1030  N33     1.420   1_565 A
N1031  N1036   1.420   .     A
N1031  N1032   1.420   .     A
N1032  N1033   1.420   .     A
N1033  N1034   1.420   .     A
N1034  N1037   1.420   .     A
N1034  N37     1.420   1_565 A
N1035  N1040   1.420   .     A
N1035  N1036   1.420   .     A
N1036  N1037   1.420   .     A
N1037  N1038   1.420   .     A
N1038  N1041   1.420   .     A
N1038  N41     1.420   1_565 A
N1039  N1044   1.420   .     A
N1039  N1040   1.420   .     A
N1040  N1041   1.420   .     A
N1041  N1042   1.420   .     A
N1042  N1045   1.420   .     A
N1042  N45     1.420   1_565 A
N1043  N1048   1.420   .     A
N1043  N1044   1.420   .     A
N1044  N1045   1.420   .     A
N1045  N1046   1.420   .     A
N1046  N1049   1.420   .     A
N1046  N49     1.420   1_565 A
N1047  N1052   1.420   .     A
N1047  N1048   1.420   .     A
N1048  N1049   1.420   .     A
N1049  N1050   1.420   .     A
N1050  N1053   1.420   .     A
N1050  N53     1.420   1_565 A
N1051  N1056   1.420   .     A
N1051  N1052   1.420   .     A
N1052  N1053   1.420   .     A
N1053  N1054   1.420   .     A
N1054  N1057   1.420   .     A
N1054  N57     1.420   1_565 A
N1055  N1060   1.420   .     A
N1055  N1056   1.420   .     A
N1056  N1057   1.420   .     A
N1057  N1058   1.420   .     A
N1058  N1061   1.420   .     A
N1058  N61     1.420   1_565 A
N1059  N1064   1.420   .     A
N1059  N1060   1.420   .     A
N1060  N1061   1.420   .     A
N1061  N1062   1.420   .     A
N1062  N1065   1.420   .     A
N1062  N65     1.420   1_565 A
N1063  N1068   1.420   .     A
N1063  N1064   1.420   .     A
N1064  N1065   1.420   .     A
N1065  N1066   1.420   .     A
N1066  N1069   1.420   .     A
N1066  N69     1.420   1_565 A
N1067  N1072   1.420   .     A
N1067  N1068   1.420   .     A
N1068  N1069   1.420   .     A
N1069  N1070   1.420   .     A
N1070  N1073   1.420   .     A
N1070  N73     1.420   1_565 A
N1071  N1075   1.420   .     A
N1071  N1072   1.420   .     A
N1072  N1073   1.420   .     A
N1073  N1074   1.420   .     A
N1074  N1076   1.420   .     A
N1074  N77     1.420   1_565 A
N1075  N1076   1.420   .     A
N1075  H1079   1.140   .     S
N1076  H1080   1.140   .     S
