data_41112005
_audit_creation_date              2020-04-13
_audit_creation_method            'Materials Studio'
_symmetry_space_group_name_H-M    'P1'
_symmetry_Int_Tables_number       1
_symmetry_cell_setting            triclinic
loop_
_symmetry_equiv_pos_as_xyz
  x,y,z
_cell_length_a                    70.0000
_cell_length_b                    127.8253
_cell_length_c                    10.0000
_cell_angle_alpha                 90.0000
_cell_angle_beta                  90.0000
_cell_angle_gamma                 90.0000
loop_
_atom_site_label
_atom_site_type_symbol
_atom_site_fract_x
_atom_site_fract_y
_atom_site_fract_z
_atom_site_U_iso_or_equiv
_atom_site_adp_type
_atom_site_occupancy
N1     N     0.16112   0.00558   0.50000   0.00000  Uiso   1.00
N2     N     0.14354   0.01114   0.50000   0.00000  Uiso   1.00
N3     N     0.14354   0.02225   0.50000   0.00000  Uiso   1.00
N4     N     0.16112   0.02780   0.50000   0.00000  Uiso   1.00
N5     N     0.19626   0.00558   0.50000   0.00000  Uiso   1.00
N6     N     0.17869   0.01114   0.50000   0.00000  Uiso   1.00
N7     N     0.17869   0.02225   0.50000   0.00000  Uiso   1.00
N8     N     0.19626   0.02780   0.50000   0.00000  Uiso   1.00
N9     N     0.23140   0.00558   0.50000   0.00000  Uiso   1.00
N10    N     0.21383   0.01114   0.50000   0.00000  Uiso   1.00
N11    N     0.21383   0.02225   0.50000   0.00000  Uiso   1.00
N12    N     0.23140   0.02780   0.50000   0.00000  Uiso   1.00
N13    N     0.26654   0.00558   0.50000   0.00000  Uiso   1.00
N14    N     0.24897   0.01114   0.50000   0.00000  Uiso   1.00
N15    N     0.24897   0.02225   0.50000   0.00000  Uiso   1.00
N16    N     0.26654   0.02780   0.50000   0.00000  Uiso   1.00
N17    N     0.30169   0.00558   0.50000   0.00000  Uiso   1.00
N18    N     0.28412   0.01114   0.50000   0.00000  Uiso   1.00
N19    N     0.28412   0.02225   0.50000   0.00000  Uiso   1.00
N20    N     0.30169   0.02780   0.50000   0.00000  Uiso   1.00
N21    N     0.33683   0.00558   0.50000   0.00000  Uiso   1.00
N22    N     0.31926   0.01114   0.50000   0.00000  Uiso   1.00
N23    N     0.31926   0.02225   0.50000   0.00000  Uiso   1.00
N24    N     0.33683   0.02780   0.50000   0.00000  Uiso   1.00
N25    N     0.37197   0.00558   0.50000   0.00000  Uiso   1.00
N26    N     0.35440   0.01114   0.50000   0.00000  Uiso   1.00
N27    N     0.35440   0.02225   0.50000   0.00000  Uiso   1.00
N28    N     0.37197   0.02780   0.50000   0.00000  Uiso   1.00
N29    N     0.40712   0.00558   0.50000   0.00000  Uiso   1.00
N30    N     0.38954   0.01114   0.50000   0.00000  Uiso   1.00
N31    N     0.38954   0.02225   0.50000   0.00000  Uiso   1.00
N32    N     0.40712   0.02780   0.50000   0.00000  Uiso   1.00
N33    N     0.44226   0.00558   0.50000   0.00000  Uiso   1.00
N34    N     0.42469   0.01114   0.50000   0.00000  Uiso   1.00
N35    N     0.42469   0.02225   0.50000   0.00000  Uiso   1.00
N36    N     0.44226   0.02780   0.50000   0.00000  Uiso   1.00
N37    N     0.47740   0.00558   0.50000   0.00000  Uiso   1.00
N38    N     0.45983   0.01114   0.50000   0.00000  Uiso   1.00
N39    N     0.45983   0.02225   0.50000   0.00000  Uiso   1.00
N40    N     0.47740   0.02780   0.50000   0.00000  Uiso   1.00
N41    N     0.51254   0.00558   0.50000   0.00000  Uiso   1.00
N42    N     0.49497   0.01114   0.50000   0.00000  Uiso   1.00
N43    N     0.49497   0.02225   0.50000   0.00000  Uiso   1.00
N44    N     0.51254   0.02780   0.50000   0.00000  Uiso   1.00
N45    N     0.54769   0.00558   0.50000   0.00000  Uiso   1.00
N46    N     0.53012   0.01114   0.50000   0.00000  Uiso   1.00
N47    N     0.53012   0.02225   0.50000   0.00000  Uiso   1.00
N48    N     0.54769   0.02780   0.50000   0.00000  Uiso   1.00
N49    N     0.58283   0.00558   0.50000   0.00000  Uiso   1.00
N50    N     0.56526   0.01114   0.50000   0.00000  Uiso   1.00
N51    N     0.56526   0.02225   0.50000   0.00000  Uiso   1.00
N52    N     0.58283   0.02780   0.50000   0.00000  Uiso   1.00
N53    N     0.61797   0.00558   0.50000   0.00000  Uiso   1.00
N54    N     0.60040   0.01114   0.50000   0.00000  Uiso   1.00
N55    N     0.60040   0.02225   0.50000   0.00000  Uiso   1.00
N56    N     0.61797   0.02780   0.50000   0.00000  Uiso   1.00
N57    N     0.65312   0.00558   0.50000   0.00000  Uiso   1.00
N58    N     0.63554   0.01114   0.50000   0.00000  Uiso   1.00
N59    N     0.63554   0.02225   0.50000   0.00000  Uiso   1.00
N60    N     0.65312   0.02780   0.50000   0.00000  Uiso   1.00
N61    N     0.68826   0.00558   0.50000   0.00000  Uiso   1.00
N62    N     0.67069   0.01114   0.50000   0.00000  Uiso   1.00
N63    N     0.67069   0.02225   0.50000   0.00000  Uiso   1.00
N64    N     0.68826   0.02780   0.50000   0.00000  Uiso   1.00
N65    N     0.72340   0.00558   0.50000   0.00000  Uiso   1.00
N66    N     0.70583   0.01114   0.50000   0.00000  Uiso   1.00
N67    N     0.70583   0.02225   0.50000   0.00000  Uiso   1.00
N68    N     0.72340   0.02780   0.50000   0.00000  Uiso   1.00
N69    N     0.75854   0.00558   0.50000   0.00000  Uiso   1.00
N70    N     0.74097   0.01114   0.50000   0.00000  Uiso   1.00
N71    N     0.74097   0.02225   0.50000   0.00000  Uiso   1.00
N72    N     0.75854   0.02780   0.50000   0.00000  Uiso   1.00
N73    N     0.79369   0.00558   0.50000   0.00000  Uiso   1.00
N74    N     0.77612   0.01114   0.50000   0.00000  Uiso   1.00
N75    N     0.77612   0.02225   0.50000   0.00000  Uiso   1.00
N76    N     0.79369   0.02780   0.50000   0.00000  Uiso   1.00
N77    N     0.82883   0.00558   0.50000   0.00000  Uiso   1.00
N78    N     0.81126   0.01114   0.50000   0.00000  Uiso   1.00
N79    N     0.81126   0.02225   0.50000   0.00000  Uiso   1.00
N80    N     0.82883   0.02780   0.50000   0.00000  Uiso   1.00
N81    N     0.84640   0.01114   0.50000   0.00000  Uiso   1.00
N82    N     0.84640   0.02225   0.50000   0.00000  Uiso   1.00
H83    H     0.12944   0.00668   0.50000   0.00000  Uiso   1.00
H84    H     0.12944   0.02671   0.50000   0.00000  Uiso   1.00
H85    H     0.86051   0.00668   0.50000   0.00000  Uiso   1.00
H86    H     0.86051   0.02671   0.50000   0.00000  Uiso   1.00
N87    N     0.16112   0.03892   0.50000   0.00000  Uiso   1.00
N88    N     0.14354   0.04447   0.50000   0.00000  Uiso   1.00
N89    N     0.14354   0.05558   0.50000   0.00000  Uiso   1.00
N90    N     0.16112   0.06114   0.50000   0.00000  Uiso   1.00
N91    N     0.19626   0.03892   0.50000   0.00000  Uiso   1.00
N92    N     0.17869   0.04447   0.50000   0.00000  Uiso   1.00
N93    N     0.17869   0.05558   0.50000   0.00000  Uiso   1.00
N94    N     0.19626   0.06114   0.50000   0.00000  Uiso   1.00
N95    N     0.23140   0.03892   0.50000   0.00000  Uiso   1.00
N96    N     0.21383   0.04447   0.50000   0.00000  Uiso   1.00
N97    N     0.21383   0.05558   0.50000   0.00000  Uiso   1.00
N98    N     0.23140   0.06114   0.50000   0.00000  Uiso   1.00
N99    N     0.26654   0.03892   0.50000   0.00000  Uiso   1.00
N100   N     0.24897   0.04447   0.50000   0.00000  Uiso   1.00
N101   N     0.24897   0.05558   0.50000   0.00000  Uiso   1.00
N102   N     0.26654   0.06114   0.50000   0.00000  Uiso   1.00
N103   N     0.30169   0.03892   0.50000   0.00000  Uiso   1.00
N104   N     0.28412   0.04447   0.50000   0.00000  Uiso   1.00
N105   N     0.28412   0.05558   0.50000   0.00000  Uiso   1.00
N106   N     0.30169   0.06114   0.50000   0.00000  Uiso   1.00
N107   N     0.33683   0.03892   0.50000   0.00000  Uiso   1.00
N108   N     0.31926   0.04447   0.50000   0.00000  Uiso   1.00
N109   N     0.31926   0.05558   0.50000   0.00000  Uiso   1.00
N110   N     0.33683   0.06114   0.50000   0.00000  Uiso   1.00
N111   N     0.37197   0.03892   0.50000   0.00000  Uiso   1.00
N112   N     0.35440   0.04447   0.50000   0.00000  Uiso   1.00
N113   N     0.35440   0.05558   0.50000   0.00000  Uiso   1.00
N114   N     0.37197   0.06114   0.50000   0.00000  Uiso   1.00
N115   N     0.40712   0.03892   0.50000   0.00000  Uiso   1.00
N116   N     0.38954   0.04447   0.50000   0.00000  Uiso   1.00
N117   N     0.38954   0.05558   0.50000   0.00000  Uiso   1.00
N118   N     0.40712   0.06114   0.50000   0.00000  Uiso   1.00
N119   N     0.44226   0.03892   0.50000   0.00000  Uiso   1.00
N120   N     0.42469   0.04447   0.50000   0.00000  Uiso   1.00
N121   N     0.42469   0.05558   0.50000   0.00000  Uiso   1.00
N122   N     0.44226   0.06114   0.50000   0.00000  Uiso   1.00
N123   N     0.47740   0.03892   0.50000   0.00000  Uiso   1.00
N124   N     0.45983   0.04447   0.50000   0.00000  Uiso   1.00
N125   N     0.45983   0.05558   0.50000   0.00000  Uiso   1.00
N126   N     0.47740   0.06114   0.50000   0.00000  Uiso   1.00
N127   N     0.51254   0.03892   0.50000   0.00000  Uiso   1.00
N128   N     0.49497   0.04447   0.50000   0.00000  Uiso   1.00
N129   N     0.49497   0.05558   0.50000   0.00000  Uiso   1.00
N130   N     0.51254   0.06114   0.50000   0.00000  Uiso   1.00
N131   N     0.54769   0.03892   0.50000   0.00000  Uiso   1.00
N132   N     0.53012   0.04447   0.50000   0.00000  Uiso   1.00
N133   N     0.53012   0.05558   0.50000   0.00000  Uiso   1.00
N134   N     0.54769   0.06114   0.50000   0.00000  Uiso   1.00
N135   N     0.58283   0.03892   0.50000   0.00000  Uiso   1.00
N136   N     0.56526   0.04447   0.50000   0.00000  Uiso   1.00
N137   N     0.56526   0.05558   0.50000   0.00000  Uiso   1.00
N138   N     0.58283   0.06114   0.50000   0.00000  Uiso   1.00
N139   N     0.61797   0.03892   0.50000   0.00000  Uiso   1.00
N140   N     0.60040   0.04447   0.50000   0.00000  Uiso   1.00
N141   N     0.60040   0.05558   0.50000   0.00000  Uiso   1.00
N142   N     0.61797   0.06114   0.50000   0.00000  Uiso   1.00
N143   N     0.65312   0.03892   0.50000   0.00000  Uiso   1.00
N144   N     0.63554   0.04447   0.50000   0.00000  Uiso   1.00
N145   N     0.63554   0.05558   0.50000   0.00000  Uiso   1.00
N146   N     0.65312   0.06114   0.50000   0.00000  Uiso   1.00
N147   N     0.68826   0.03892   0.50000   0.00000  Uiso   1.00
N148   N     0.67069   0.04447   0.50000   0.00000  Uiso   1.00
N149   N     0.67069   0.05558   0.50000   0.00000  Uiso   1.00
N150   N     0.68826   0.06114   0.50000   0.00000  Uiso   1.00
N151   N     0.72340   0.03892   0.50000   0.00000  Uiso   1.00
N152   N     0.70583   0.04447   0.50000   0.00000  Uiso   1.00
N153   N     0.70583   0.05558   0.50000   0.00000  Uiso   1.00
N154   N     0.72340   0.06114   0.50000   0.00000  Uiso   1.00
N155   N     0.75854   0.03892   0.50000   0.00000  Uiso   1.00
N156   N     0.74097   0.04447   0.50000   0.00000  Uiso   1.00
N157   N     0.74097   0.05558   0.50000   0.00000  Uiso   1.00
N158   N     0.75854   0.06114   0.50000   0.00000  Uiso   1.00
N159   N     0.79369   0.03892   0.50000   0.00000  Uiso   1.00
N160   N     0.77612   0.04447   0.50000   0.00000  Uiso   1.00
N161   N     0.77612   0.05558   0.50000   0.00000  Uiso   1.00
N162   N     0.79369   0.06114   0.50000   0.00000  Uiso   1.00
N163   N     0.82883   0.03892   0.50000   0.00000  Uiso   1.00
N164   N     0.81126   0.04447   0.50000   0.00000  Uiso   1.00
N165   N     0.81126   0.05558   0.50000   0.00000  Uiso   1.00
N166   N     0.82883   0.06114   0.50000   0.00000  Uiso   1.00
N167   N     0.84640   0.04447   0.50000   0.00000  Uiso   1.00
N168   N     0.84640   0.05558   0.50000   0.00000  Uiso   1.00
H169   H     0.12944   0.04001   0.50000   0.00000  Uiso   1.00
H170   H     0.12944   0.06004   0.50000   0.00000  Uiso   1.00
H171   H     0.86051   0.04001   0.50000   0.00000  Uiso   1.00
H172   H     0.86051   0.06004   0.50000   0.00000  Uiso   1.00
N173   N     0.16112   0.07225   0.50000   0.00000  Uiso   1.00
N174   N     0.14354   0.07780   0.50000   0.00000  Uiso   1.00
N175   N     0.14354   0.08892   0.50000   0.00000  Uiso   1.00
N176   N     0.16112   0.09447   0.50000   0.00000  Uiso   1.00
N177   N     0.19626   0.07225   0.50000   0.00000  Uiso   1.00
N178   N     0.17869   0.07780   0.50000   0.00000  Uiso   1.00
N179   N     0.17869   0.08892   0.50000   0.00000  Uiso   1.00
N180   N     0.19626   0.09447   0.50000   0.00000  Uiso   1.00
N181   N     0.23140   0.07225   0.50000   0.00000  Uiso   1.00
N182   N     0.21383   0.07780   0.50000   0.00000  Uiso   1.00
N183   N     0.21383   0.08892   0.50000   0.00000  Uiso   1.00
N184   N     0.23140   0.09447   0.50000   0.00000  Uiso   1.00
N185   N     0.26654   0.07225   0.50000   0.00000  Uiso   1.00
N186   N     0.24897   0.07780   0.50000   0.00000  Uiso   1.00
N187   N     0.24897   0.08892   0.50000   0.00000  Uiso   1.00
N188   N     0.26654   0.09447   0.50000   0.00000  Uiso   1.00
N189   N     0.30169   0.07225   0.50000   0.00000  Uiso   1.00
N190   N     0.28412   0.07780   0.50000   0.00000  Uiso   1.00
N191   N     0.28412   0.08892   0.50000   0.00000  Uiso   1.00
N192   N     0.30169   0.09447   0.50000   0.00000  Uiso   1.00
N193   N     0.33683   0.07225   0.50000   0.00000  Uiso   1.00
N194   N     0.31926   0.07780   0.50000   0.00000  Uiso   1.00
N195   N     0.31926   0.08892   0.50000   0.00000  Uiso   1.00
N196   N     0.33683   0.09447   0.50000   0.00000  Uiso   1.00
N197   N     0.37197   0.07225   0.50000   0.00000  Uiso   1.00
N198   N     0.35440   0.07780   0.50000   0.00000  Uiso   1.00
N199   N     0.35440   0.08892   0.50000   0.00000  Uiso   1.00
N200   N     0.37197   0.09447   0.50000   0.00000  Uiso   1.00
N201   N     0.40712   0.07225   0.50000   0.00000  Uiso   1.00
N202   N     0.38954   0.07780   0.50000   0.00000  Uiso   1.00
N203   N     0.38954   0.08892   0.50000   0.00000  Uiso   1.00
N204   N     0.40712   0.09447   0.50000   0.00000  Uiso   1.00
N205   N     0.44226   0.07225   0.50000   0.00000  Uiso   1.00
N206   N     0.42469   0.07780   0.50000   0.00000  Uiso   1.00
N207   N     0.42469   0.08892   0.50000   0.00000  Uiso   1.00
N208   N     0.44226   0.09447   0.50000   0.00000  Uiso   1.00
N209   N     0.47740   0.07225   0.50000   0.00000  Uiso   1.00
N210   N     0.45983   0.07780   0.50000   0.00000  Uiso   1.00
N211   N     0.45983   0.08892   0.50000   0.00000  Uiso   1.00
N212   N     0.47740   0.09447   0.50000   0.00000  Uiso   1.00
N213   N     0.51254   0.07225   0.50000   0.00000  Uiso   1.00
N214   N     0.49497   0.07780   0.50000   0.00000  Uiso   1.00
N215   N     0.49497   0.08892   0.50000   0.00000  Uiso   1.00
N216   N     0.51254   0.09447   0.50000   0.00000  Uiso   1.00
N217   N     0.54769   0.07225   0.50000   0.00000  Uiso   1.00
N218   N     0.53012   0.07780   0.50000   0.00000  Uiso   1.00
N219   N     0.53012   0.08892   0.50000   0.00000  Uiso   1.00
N220   N     0.54769   0.09447   0.50000   0.00000  Uiso   1.00
N221   N     0.58283   0.07225   0.50000   0.00000  Uiso   1.00
N222   N     0.56526   0.07780   0.50000   0.00000  Uiso   1.00
N223   N     0.56526   0.08892   0.50000   0.00000  Uiso   1.00
N224   N     0.58283   0.09447   0.50000   0.00000  Uiso   1.00
N225   N     0.61797   0.07225   0.50000   0.00000  Uiso   1.00
N226   N     0.60040   0.07780   0.50000   0.00000  Uiso   1.00
N227   N     0.60040   0.08892   0.50000   0.00000  Uiso   1.00
N228   N     0.61797   0.09447   0.50000   0.00000  Uiso   1.00
N229   N     0.65312   0.07225   0.50000   0.00000  Uiso   1.00
N230   N     0.63554   0.07780   0.50000   0.00000  Uiso   1.00
N231   N     0.63554   0.08892   0.50000   0.00000  Uiso   1.00
N232   N     0.65312   0.09447   0.50000   0.00000  Uiso   1.00
N233   N     0.68826   0.07225   0.50000   0.00000  Uiso   1.00
N234   N     0.67069   0.07780   0.50000   0.00000  Uiso   1.00
N235   N     0.67069   0.08892   0.50000   0.00000  Uiso   1.00
N236   N     0.68826   0.09447   0.50000   0.00000  Uiso   1.00
N237   N     0.72340   0.07225   0.50000   0.00000  Uiso   1.00
N238   N     0.70583   0.07780   0.50000   0.00000  Uiso   1.00
N239   N     0.70583   0.08892   0.50000   0.00000  Uiso   1.00
N240   N     0.72340   0.09447   0.50000   0.00000  Uiso   1.00
N241   N     0.75854   0.07225   0.50000   0.00000  Uiso   1.00
N242   N     0.74097   0.07780   0.50000   0.00000  Uiso   1.00
N243   N     0.74097   0.08892   0.50000   0.00000  Uiso   1.00
N244   N     0.75854   0.09447   0.50000   0.00000  Uiso   1.00
N245   N     0.79369   0.07225   0.50000   0.00000  Uiso   1.00
N246   N     0.77612   0.07780   0.50000   0.00000  Uiso   1.00
N247   N     0.77612   0.08892   0.50000   0.00000  Uiso   1.00
N248   N     0.79369   0.09447   0.50000   0.00000  Uiso   1.00
N249   N     0.82883   0.07225   0.50000   0.00000  Uiso   1.00
N250   N     0.81126   0.07780   0.50000   0.00000  Uiso   1.00
N251   N     0.81126   0.08892   0.50000   0.00000  Uiso   1.00
N252   N     0.82883   0.09447   0.50000   0.00000  Uiso   1.00
N253   N     0.84640   0.07780   0.50000   0.00000  Uiso   1.00
N254   N     0.84640   0.08892   0.50000   0.00000  Uiso   1.00
H255   H     0.12944   0.07335   0.50000   0.00000  Uiso   1.00
H256   H     0.12944   0.09337   0.50000   0.00000  Uiso   1.00
H257   H     0.86051   0.07335   0.50000   0.00000  Uiso   1.00
H258   H     0.86051   0.09337   0.50000   0.00000  Uiso   1.00
N259   N     0.16112   0.10558   0.50000   0.00000  Uiso   1.00
N260   N     0.14354   0.11114   0.50000   0.00000  Uiso   1.00
N261   N     0.14354   0.12225   0.50000   0.00000  Uiso   1.00
N262   N     0.16112   0.12780   0.50000   0.00000  Uiso   1.00
N263   N     0.19626   0.10558   0.50000   0.00000  Uiso   1.00
N264   N     0.17869   0.11114   0.50000   0.00000  Uiso   1.00
N265   N     0.17869   0.12225   0.50000   0.00000  Uiso   1.00
N266   N     0.19626   0.12780   0.50000   0.00000  Uiso   1.00
N267   N     0.23140   0.10558   0.50000   0.00000  Uiso   1.00
N268   N     0.21383   0.11114   0.50000   0.00000  Uiso   1.00
N269   N     0.21383   0.12225   0.50000   0.00000  Uiso   1.00
N270   N     0.23140   0.12780   0.50000   0.00000  Uiso   1.00
N271   N     0.26654   0.10558   0.50000   0.00000  Uiso   1.00
N272   N     0.24897   0.11114   0.50000   0.00000  Uiso   1.00
N273   N     0.24897   0.12225   0.50000   0.00000  Uiso   1.00
N274   N     0.26654   0.12780   0.50000   0.00000  Uiso   1.00
N275   N     0.30169   0.10558   0.50000   0.00000  Uiso   1.00
N276   N     0.28412   0.11114   0.50000   0.00000  Uiso   1.00
N277   N     0.28412   0.12225   0.50000   0.00000  Uiso   1.00
N278   N     0.30169   0.12780   0.50000   0.00000  Uiso   1.00
N279   N     0.33683   0.10558   0.50000   0.00000  Uiso   1.00
N280   N     0.31926   0.11114   0.50000   0.00000  Uiso   1.00
N281   N     0.31926   0.12225   0.50000   0.00000  Uiso   1.00
N282   N     0.33683   0.12780   0.50000   0.00000  Uiso   1.00
N283   N     0.37197   0.10558   0.50000   0.00000  Uiso   1.00
N284   N     0.35440   0.11114   0.50000   0.00000  Uiso   1.00
N285   N     0.35440   0.12225   0.50000   0.00000  Uiso   1.00
N286   N     0.37197   0.12780   0.50000   0.00000  Uiso   1.00
N287   N     0.40712   0.10558   0.50000   0.00000  Uiso   1.00
N288   N     0.38954   0.11114   0.50000   0.00000  Uiso   1.00
N289   N     0.38954   0.12225   0.50000   0.00000  Uiso   1.00
N290   N     0.40712   0.12780   0.50000   0.00000  Uiso   1.00
N291   N     0.44226   0.10558   0.50000   0.00000  Uiso   1.00
N292   N     0.42469   0.11114   0.50000   0.00000  Uiso   1.00
N293   N     0.42469   0.12225   0.50000   0.00000  Uiso   1.00
N294   N     0.44226   0.12780   0.50000   0.00000  Uiso   1.00
N295   N     0.47740   0.10558   0.50000   0.00000  Uiso   1.00
N296   N     0.45983   0.11114   0.50000   0.00000  Uiso   1.00
N297   N     0.45983   0.12225   0.50000   0.00000  Uiso   1.00
N298   N     0.47740   0.12780   0.50000   0.00000  Uiso   1.00
N299   N     0.51254   0.10558   0.50000   0.00000  Uiso   1.00
N300   N     0.49497   0.11114   0.50000   0.00000  Uiso   1.00
N301   N     0.49497   0.12225   0.50000   0.00000  Uiso   1.00
N302   N     0.51254   0.12780   0.50000   0.00000  Uiso   1.00
N303   N     0.54769   0.10558   0.50000   0.00000  Uiso   1.00
N304   N     0.53012   0.11114   0.50000   0.00000  Uiso   1.00
N305   N     0.53012   0.12225   0.50000   0.00000  Uiso   1.00
N306   N     0.54769   0.12780   0.50000   0.00000  Uiso   1.00
N307   N     0.58283   0.10558   0.50000   0.00000  Uiso   1.00
N308   N     0.56526   0.11114   0.50000   0.00000  Uiso   1.00
N309   N     0.56526   0.12225   0.50000   0.00000  Uiso   1.00
N310   N     0.58283   0.12780   0.50000   0.00000  Uiso   1.00
N311   N     0.61797   0.10558   0.50000   0.00000  Uiso   1.00
N312   N     0.60040   0.11114   0.50000   0.00000  Uiso   1.00
N313   N     0.60040   0.12225   0.50000   0.00000  Uiso   1.00
N314   N     0.61797   0.12780   0.50000   0.00000  Uiso   1.00
N315   N     0.65312   0.10558   0.50000   0.00000  Uiso   1.00
N316   N     0.63554   0.11114   0.50000   0.00000  Uiso   1.00
N317   N     0.63554   0.12225   0.50000   0.00000  Uiso   1.00
N318   N     0.65312   0.12780   0.50000   0.00000  Uiso   1.00
N319   N     0.68826   0.10558   0.50000   0.00000  Uiso   1.00
N320   N     0.67069   0.11114   0.50000   0.00000  Uiso   1.00
N321   N     0.67069   0.12225   0.50000   0.00000  Uiso   1.00
N322   N     0.68826   0.12780   0.50000   0.00000  Uiso   1.00
N323   N     0.72340   0.10558   0.50000   0.00000  Uiso   1.00
N324   N     0.70583   0.11114   0.50000   0.00000  Uiso   1.00
N325   N     0.70583   0.12225   0.50000   0.00000  Uiso   1.00
N326   N     0.72340   0.12780   0.50000   0.00000  Uiso   1.00
N327   N     0.75854   0.10558   0.50000   0.00000  Uiso   1.00
N328   N     0.74097   0.11114   0.50000   0.00000  Uiso   1.00
N329   N     0.74097   0.12225   0.50000   0.00000  Uiso   1.00
N330   N     0.75854   0.12780   0.50000   0.00000  Uiso   1.00
N331   N     0.79369   0.10558   0.50000   0.00000  Uiso   1.00
N332   N     0.77612   0.11114   0.50000   0.00000  Uiso   1.00
N333   N     0.77612   0.12225   0.50000   0.00000  Uiso   1.00
N334   N     0.79369   0.12780   0.50000   0.00000  Uiso   1.00
N335   N     0.82883   0.10558   0.50000   0.00000  Uiso   1.00
N336   N     0.81126   0.11114   0.50000   0.00000  Uiso   1.00
N337   N     0.81126   0.12225   0.50000   0.00000  Uiso   1.00
N338   N     0.82883   0.12780   0.50000   0.00000  Uiso   1.00
N339   N     0.84640   0.11114   0.50000   0.00000  Uiso   1.00
N340   N     0.84640   0.12225   0.50000   0.00000  Uiso   1.00
H341   H     0.12944   0.10668   0.50000   0.00000  Uiso   1.00
H342   H     0.12944   0.12671   0.50000   0.00000  Uiso   1.00
H343   H     0.86051   0.10668   0.50000   0.00000  Uiso   1.00
H344   H     0.86051   0.12671   0.50000   0.00000  Uiso   1.00
N345   N     0.16112   0.13892   0.50000   0.00000  Uiso   1.00
N346   N     0.14354   0.14447   0.50000   0.00000  Uiso   1.00
N347   N     0.14354   0.15558   0.50000   0.00000  Uiso   1.00
N348   N     0.16112   0.16114   0.50000   0.00000  Uiso   1.00
N349   N     0.19626   0.13892   0.50000   0.00000  Uiso   1.00
N350   N     0.17869   0.14447   0.50000   0.00000  Uiso   1.00
N351   N     0.17869   0.15558   0.50000   0.00000  Uiso   1.00
N352   N     0.19626   0.16114   0.50000   0.00000  Uiso   1.00
N353   N     0.23140   0.13892   0.50000   0.00000  Uiso   1.00
N354   N     0.21383   0.14447   0.50000   0.00000  Uiso   1.00
N355   N     0.21383   0.15558   0.50000   0.00000  Uiso   1.00
N356   N     0.23140   0.16114   0.50000   0.00000  Uiso   1.00
N357   N     0.26654   0.13892   0.50000   0.00000  Uiso   1.00
N358   N     0.24897   0.14447   0.50000   0.00000  Uiso   1.00
N359   N     0.24897   0.15558   0.50000   0.00000  Uiso   1.00
N360   N     0.26654   0.16114   0.50000   0.00000  Uiso   1.00
N361   N     0.30169   0.13892   0.50000   0.00000  Uiso   1.00
N362   N     0.28412   0.14447   0.50000   0.00000  Uiso   1.00
N363   N     0.28412   0.15558   0.50000   0.00000  Uiso   1.00
N364   N     0.30169   0.16114   0.50000   0.00000  Uiso   1.00
N365   N     0.33683   0.13892   0.50000   0.00000  Uiso   1.00
N366   N     0.31926   0.14447   0.50000   0.00000  Uiso   1.00
N367   N     0.31926   0.15558   0.50000   0.00000  Uiso   1.00
N368   N     0.33683   0.16114   0.50000   0.00000  Uiso   1.00
N369   N     0.37197   0.13892   0.50000   0.00000  Uiso   1.00
N370   N     0.35440   0.14447   0.50000   0.00000  Uiso   1.00
N371   N     0.35440   0.15558   0.50000   0.00000  Uiso   1.00
N372   N     0.37197   0.16114   0.50000   0.00000  Uiso   1.00
N373   N     0.40712   0.13892   0.50000   0.00000  Uiso   1.00
N374   N     0.38954   0.14447   0.50000   0.00000  Uiso   1.00
N375   N     0.38954   0.15558   0.50000   0.00000  Uiso   1.00
N376   N     0.40712   0.16114   0.50000   0.00000  Uiso   1.00
N377   N     0.44226   0.13892   0.50000   0.00000  Uiso   1.00
N378   N     0.42469   0.14447   0.50000   0.00000  Uiso   1.00
N379   N     0.42469   0.15558   0.50000   0.00000  Uiso   1.00
N380   N     0.44226   0.16114   0.50000   0.00000  Uiso   1.00
N381   N     0.47740   0.13892   0.50000   0.00000  Uiso   1.00
N382   N     0.45983   0.14447   0.50000   0.00000  Uiso   1.00
N383   N     0.45983   0.15558   0.50000   0.00000  Uiso   1.00
N384   N     0.47740   0.16114   0.50000   0.00000  Uiso   1.00
N385   N     0.51254   0.13892   0.50000   0.00000  Uiso   1.00
N386   N     0.49497   0.14447   0.50000   0.00000  Uiso   1.00
N387   N     0.49497   0.15558   0.50000   0.00000  Uiso   1.00
N388   N     0.51254   0.16114   0.50000   0.00000  Uiso   1.00
N389   N     0.54769   0.13892   0.50000   0.00000  Uiso   1.00
N390   N     0.53012   0.14447   0.50000   0.00000  Uiso   1.00
N391   N     0.53012   0.15558   0.50000   0.00000  Uiso   1.00
N392   N     0.54769   0.16114   0.50000   0.00000  Uiso   1.00
N393   N     0.58283   0.13892   0.50000   0.00000  Uiso   1.00
N394   N     0.56526   0.14447   0.50000   0.00000  Uiso   1.00
N395   N     0.56526   0.15558   0.50000   0.00000  Uiso   1.00
N396   N     0.58283   0.16114   0.50000   0.00000  Uiso   1.00
N397   N     0.61797   0.13892   0.50000   0.00000  Uiso   1.00
N398   N     0.60040   0.14447   0.50000   0.00000  Uiso   1.00
N399   N     0.60040   0.15558   0.50000   0.00000  Uiso   1.00
N400   N     0.61797   0.16114   0.50000   0.00000  Uiso   1.00
N401   N     0.65312   0.13892   0.50000   0.00000  Uiso   1.00
N402   N     0.63554   0.14447   0.50000   0.00000  Uiso   1.00
N403   N     0.63554   0.15558   0.50000   0.00000  Uiso   1.00
N404   N     0.65312   0.16114   0.50000   0.00000  Uiso   1.00
N405   N     0.68826   0.13892   0.50000   0.00000  Uiso   1.00
N406   N     0.67069   0.14447   0.50000   0.00000  Uiso   1.00
N407   N     0.67069   0.15558   0.50000   0.00000  Uiso   1.00
N408   N     0.68826   0.16114   0.50000   0.00000  Uiso   1.00
N409   N     0.72340   0.13892   0.50000   0.00000  Uiso   1.00
N410   N     0.70583   0.14447   0.50000   0.00000  Uiso   1.00
N411   N     0.70583   0.15558   0.50000   0.00000  Uiso   1.00
N412   N     0.72340   0.16114   0.50000   0.00000  Uiso   1.00
N413   N     0.75854   0.13892   0.50000   0.00000  Uiso   1.00
N414   N     0.74097   0.14447   0.50000   0.00000  Uiso   1.00
N415   N     0.74097   0.15558   0.50000   0.00000  Uiso   1.00
N416   N     0.75854   0.16114   0.50000   0.00000  Uiso   1.00
N417   N     0.79369   0.13892   0.50000   0.00000  Uiso   1.00
N418   N     0.77612   0.14447   0.50000   0.00000  Uiso   1.00
N419   N     0.77612   0.15558   0.50000   0.00000  Uiso   1.00
N420   N     0.79369   0.16114   0.50000   0.00000  Uiso   1.00
N421   N     0.82883   0.13892   0.50000   0.00000  Uiso   1.00
N422   N     0.81126   0.14447   0.50000   0.00000  Uiso   1.00
N423   N     0.81126   0.15558   0.50000   0.00000  Uiso   1.00
N424   N     0.82883   0.16114   0.50000   0.00000  Uiso   1.00
N425   N     0.84640   0.14447   0.50000   0.00000  Uiso   1.00
N426   N     0.84640   0.15558   0.50000   0.00000  Uiso   1.00
H427   H     0.12944   0.14001   0.50000   0.00000  Uiso   1.00
H428   H     0.12944   0.16004   0.50000   0.00000  Uiso   1.00
H429   H     0.86051   0.14001   0.50000   0.00000  Uiso   1.00
H430   H     0.86051   0.16004   0.50000   0.00000  Uiso   1.00
C431   C     0.40712   0.17225   0.50000   0.00000  Uiso   1.00
C432   C     0.40712   0.19447   0.50000   0.00000  Uiso   1.00
C433   C     0.44226   0.17225   0.50000   0.00000  Uiso   1.00
C434   C     0.42469   0.17780   0.50000   0.00000  Uiso   1.00
C435   C     0.42469   0.18892   0.50000   0.00000  Uiso   1.00
C436   C     0.44226   0.19447   0.50000   0.00000  Uiso   1.00
C437   C     0.47740   0.17225   0.50000   0.00000  Uiso   1.00
C438   C     0.45983   0.17780   0.50000   0.00000  Uiso   1.00
C439   C     0.45983   0.18892   0.50000   0.00000  Uiso   1.00
C440   C     0.47740   0.19447   0.50000   0.00000  Uiso   1.00
C441   C     0.51254   0.17225   0.50000   0.00000  Uiso   1.00
C442   C     0.49497   0.17780   0.50000   0.00000  Uiso   1.00
C443   C     0.49497   0.18892   0.50000   0.00000  Uiso   1.00
C444   C     0.51254   0.19447   0.50000   0.00000  Uiso   1.00
C445   C     0.54769   0.17225   0.50000   0.00000  Uiso   1.00
C446   C     0.53012   0.17780   0.50000   0.00000  Uiso   1.00
C447   C     0.53012   0.18892   0.50000   0.00000  Uiso   1.00
C448   C     0.54769   0.19447   0.50000   0.00000  Uiso   1.00
C449   C     0.58283   0.17225   0.50000   0.00000  Uiso   1.00
C450   C     0.56526   0.17780   0.50000   0.00000  Uiso   1.00
C451   C     0.56526   0.18892   0.50000   0.00000  Uiso   1.00
C452   C     0.58283   0.19447   0.50000   0.00000  Uiso   1.00
C453   C     0.40712   0.20558   0.50000   0.00000  Uiso   1.00
C454   C     0.40712   0.22780   0.50000   0.00000  Uiso   1.00
C455   C     0.44226   0.20558   0.50000   0.00000  Uiso   1.00
C456   C     0.42469   0.21114   0.50000   0.00000  Uiso   1.00
C457   C     0.42469   0.22225   0.50000   0.00000  Uiso   1.00
C458   C     0.44226   0.22780   0.50000   0.00000  Uiso   1.00
C459   C     0.47740   0.20558   0.50000   0.00000  Uiso   1.00
C460   C     0.45983   0.21114   0.50000   0.00000  Uiso   1.00
C461   C     0.45983   0.22225   0.50000   0.00000  Uiso   1.00
C462   C     0.47740   0.22780   0.50000   0.00000  Uiso   1.00
C463   C     0.51254   0.20558   0.50000   0.00000  Uiso   1.00
C464   C     0.49497   0.21114   0.50000   0.00000  Uiso   1.00
C465   C     0.49497   0.22225   0.50000   0.00000  Uiso   1.00
C466   C     0.51254   0.22780   0.50000   0.00000  Uiso   1.00
C467   C     0.54769   0.20558   0.50000   0.00000  Uiso   1.00
C468   C     0.53012   0.21114   0.50000   0.00000  Uiso   1.00
C469   C     0.53012   0.22225   0.50000   0.00000  Uiso   1.00
C470   C     0.54769   0.22780   0.50000   0.00000  Uiso   1.00
C471   C     0.58283   0.20558   0.50000   0.00000  Uiso   1.00
C472   C     0.56526   0.21114   0.50000   0.00000  Uiso   1.00
C473   C     0.56526   0.22225   0.50000   0.00000  Uiso   1.00
C474   C     0.58283   0.22780   0.50000   0.00000  Uiso   1.00
C475   C     0.40712   0.23892   0.50000   0.00000  Uiso   1.00
C476   C     0.40712   0.26114   0.50000   0.00000  Uiso   1.00
C477   C     0.44226   0.23892   0.50000   0.00000  Uiso   1.00
C478   C     0.42469   0.24447   0.50000   0.00000  Uiso   1.00
C479   C     0.42469   0.25558   0.50000   0.00000  Uiso   1.00
C480   C     0.44226   0.26114   0.50000   0.00000  Uiso   1.00
C481   C     0.47740   0.23892   0.50000   0.00000  Uiso   1.00
C482   C     0.45983   0.24447   0.50000   0.00000  Uiso   1.00
C483   C     0.45983   0.25558   0.50000   0.00000  Uiso   1.00
C484   C     0.47740   0.26114   0.50000   0.00000  Uiso   1.00
C485   C     0.51254   0.23892   0.50000   0.00000  Uiso   1.00
C486   C     0.49497   0.24447   0.50000   0.00000  Uiso   1.00
C487   C     0.49497   0.25558   0.50000   0.00000  Uiso   1.00
C488   C     0.51254   0.26114   0.50000   0.00000  Uiso   1.00
C489   C     0.54769   0.23892   0.50000   0.00000  Uiso   1.00
C490   C     0.53012   0.24447   0.50000   0.00000  Uiso   1.00
C491   C     0.53012   0.25558   0.50000   0.00000  Uiso   1.00
C492   C     0.54769   0.26114   0.50000   0.00000  Uiso   1.00
C493   C     0.58283   0.23892   0.50000   0.00000  Uiso   1.00
C494   C     0.56526   0.24447   0.50000   0.00000  Uiso   1.00
C495   C     0.56526   0.25558   0.50000   0.00000  Uiso   1.00
C496   C     0.58283   0.26114   0.50000   0.00000  Uiso   1.00
C497   C     0.40712   0.27225   0.50000   0.00000  Uiso   1.00
C498   C     0.40712   0.29447   0.50000   0.00000  Uiso   1.00
C499   C     0.44226   0.27225   0.50000   0.00000  Uiso   1.00
C500   C     0.42469   0.27780   0.50000   0.00000  Uiso   1.00
C501   C     0.42469   0.28892   0.50000   0.00000  Uiso   1.00
C502   C     0.44226   0.29447   0.50000   0.00000  Uiso   1.00
C503   C     0.47740   0.27225   0.50000   0.00000  Uiso   1.00
C504   C     0.45983   0.27780   0.50000   0.00000  Uiso   1.00
C505   C     0.45983   0.28892   0.50000   0.00000  Uiso   1.00
C506   C     0.47740   0.29447   0.50000   0.00000  Uiso   1.00
C507   C     0.51254   0.27225   0.50000   0.00000  Uiso   1.00
C508   C     0.49497   0.27780   0.50000   0.00000  Uiso   1.00
C509   C     0.49497   0.28892   0.50000   0.00000  Uiso   1.00
C510   C     0.51254   0.29447   0.50000   0.00000  Uiso   1.00
C511   C     0.54769   0.27225   0.50000   0.00000  Uiso   1.00
C512   C     0.53012   0.27780   0.50000   0.00000  Uiso   1.00
C513   C     0.53012   0.28892   0.50000   0.00000  Uiso   1.00
C514   C     0.54769   0.29447   0.50000   0.00000  Uiso   1.00
C515   C     0.58283   0.27225   0.50000   0.00000  Uiso   1.00
C516   C     0.56526   0.27780   0.50000   0.00000  Uiso   1.00
C517   C     0.56526   0.28892   0.50000   0.00000  Uiso   1.00
C518   C     0.58283   0.29447   0.50000   0.00000  Uiso   1.00
C519   C     0.40712   0.30558   0.50000   0.00000  Uiso   1.00
C520   C     0.40712   0.32780   0.50000   0.00000  Uiso   1.00
C521   C     0.44226   0.30558   0.50000   0.00000  Uiso   1.00
C522   C     0.42469   0.31114   0.50000   0.00000  Uiso   1.00
C523   C     0.42469   0.32225   0.50000   0.00000  Uiso   1.00
C524   C     0.44226   0.32780   0.50000   0.00000  Uiso   1.00
C525   C     0.47740   0.30558   0.50000   0.00000  Uiso   1.00
C526   C     0.45983   0.31114   0.50000   0.00000  Uiso   1.00
C527   C     0.45983   0.32225   0.50000   0.00000  Uiso   1.00
C528   C     0.47740   0.32780   0.50000   0.00000  Uiso   1.00
C529   C     0.51254   0.30558   0.50000   0.00000  Uiso   1.00
C530   C     0.49497   0.31114   0.50000   0.00000  Uiso   1.00
C531   C     0.49497   0.32225   0.50000   0.00000  Uiso   1.00
C532   C     0.51254   0.32780   0.50000   0.00000  Uiso   1.00
C533   C     0.54769   0.30558   0.50000   0.00000  Uiso   1.00
C534   C     0.53012   0.31114   0.50000   0.00000  Uiso   1.00
C535   C     0.53012   0.32225   0.50000   0.00000  Uiso   1.00
C536   C     0.54769   0.32780   0.50000   0.00000  Uiso   1.00
C537   C     0.58283   0.30558   0.50000   0.00000  Uiso   1.00
C538   C     0.56526   0.31114   0.50000   0.00000  Uiso   1.00
C539   C     0.56526   0.32225   0.50000   0.00000  Uiso   1.00
C540   C     0.58283   0.32780   0.50000   0.00000  Uiso   1.00
C541   C     0.40712   0.33892   0.50000   0.00000  Uiso   1.00
C542   C     0.40712   0.36114   0.50000   0.00000  Uiso   1.00
C543   C     0.44226   0.33892   0.50000   0.00000  Uiso   1.00
C544   C     0.42469   0.34447   0.50000   0.00000  Uiso   1.00
C545   C     0.42469   0.35558   0.50000   0.00000  Uiso   1.00
C546   C     0.44226   0.36114   0.50000   0.00000  Uiso   1.00
C547   C     0.47740   0.33892   0.50000   0.00000  Uiso   1.00
C548   C     0.45983   0.34447   0.50000   0.00000  Uiso   1.00
C549   C     0.45983   0.35558   0.50000   0.00000  Uiso   1.00
C550   C     0.47740   0.36114   0.50000   0.00000  Uiso   1.00
C551   C     0.51254   0.33892   0.50000   0.00000  Uiso   1.00
C552   C     0.49497   0.34447   0.50000   0.00000  Uiso   1.00
C553   C     0.49497   0.35558   0.50000   0.00000  Uiso   1.00
C554   C     0.51254   0.36114   0.50000   0.00000  Uiso   1.00
C555   C     0.54769   0.33892   0.50000   0.00000  Uiso   1.00
C556   C     0.53012   0.34447   0.50000   0.00000  Uiso   1.00
C557   C     0.53012   0.35558   0.50000   0.00000  Uiso   1.00
C558   C     0.54769   0.36114   0.50000   0.00000  Uiso   1.00
C559   C     0.58283   0.33892   0.50000   0.00000  Uiso   1.00
C560   C     0.56526   0.34447   0.50000   0.00000  Uiso   1.00
C561   C     0.56526   0.35558   0.50000   0.00000  Uiso   1.00
C562   C     0.58283   0.36114   0.50000   0.00000  Uiso   1.00
C563   C     0.40712   0.37225   0.50000   0.00000  Uiso   1.00
C564   C     0.40712   0.39447   0.50000   0.00000  Uiso   1.00
C565   C     0.44226   0.37225   0.50000   0.00000  Uiso   1.00
C566   C     0.42469   0.37780   0.50000   0.00000  Uiso   1.00
C567   C     0.42469   0.38892   0.50000   0.00000  Uiso   1.00
C568   C     0.44226   0.39447   0.50000   0.00000  Uiso   1.00
C569   C     0.47740   0.37225   0.50000   0.00000  Uiso   1.00
C570   C     0.45983   0.37780   0.50000   0.00000  Uiso   1.00
C571   C     0.45983   0.38892   0.50000   0.00000  Uiso   1.00
C572   C     0.47740   0.39447   0.50000   0.00000  Uiso   1.00
C573   C     0.51254   0.37225   0.50000   0.00000  Uiso   1.00
C574   C     0.49497   0.37780   0.50000   0.00000  Uiso   1.00
C575   C     0.49497   0.38892   0.50000   0.00000  Uiso   1.00
C576   C     0.51254   0.39447   0.50000   0.00000  Uiso   1.00
C577   C     0.54769   0.37225   0.50000   0.00000  Uiso   1.00
C578   C     0.53012   0.37780   0.50000   0.00000  Uiso   1.00
C579   C     0.53012   0.38892   0.50000   0.00000  Uiso   1.00
C580   C     0.54769   0.39447   0.50000   0.00000  Uiso   1.00
C581   C     0.58283   0.37225   0.50000   0.00000  Uiso   1.00
C582   C     0.56526   0.37780   0.50000   0.00000  Uiso   1.00
C583   C     0.56526   0.38892   0.50000   0.00000  Uiso   1.00
C584   C     0.58283   0.39447   0.50000   0.00000  Uiso   1.00
C585   C     0.40712   0.40558   0.50000   0.00000  Uiso   1.00
C586   C     0.40712   0.42780   0.50000   0.00000  Uiso   1.00
C587   C     0.44226   0.40558   0.50000   0.00000  Uiso   1.00
C588   C     0.42469   0.41114   0.50000   0.00000  Uiso   1.00
C589   C     0.42469   0.42225   0.50000   0.00000  Uiso   1.00
C590   C     0.44226   0.42780   0.50000   0.00000  Uiso   1.00
C591   C     0.47740   0.40558   0.50000   0.00000  Uiso   1.00
C592   C     0.45983   0.41114   0.50000   0.00000  Uiso   1.00
C593   C     0.45983   0.42225   0.50000   0.00000  Uiso   1.00
C594   C     0.47740   0.42780   0.50000   0.00000  Uiso   1.00
C595   C     0.51254   0.40558   0.50000   0.00000  Uiso   1.00
C596   C     0.49497   0.41114   0.50000   0.00000  Uiso   1.00
C597   C     0.49497   0.42225   0.50000   0.00000  Uiso   1.00
C598   C     0.51254   0.42780   0.50000   0.00000  Uiso   1.00
C599   C     0.54769   0.40558   0.50000   0.00000  Uiso   1.00
C600   C     0.53012   0.41114   0.50000   0.00000  Uiso   1.00
C601   C     0.53012   0.42225   0.50000   0.00000  Uiso   1.00
C602   C     0.54769   0.42780   0.50000   0.00000  Uiso   1.00
C603   C     0.58283   0.40558   0.50000   0.00000  Uiso   1.00
C604   C     0.56526   0.41114   0.50000   0.00000  Uiso   1.00
C605   C     0.56526   0.42225   0.50000   0.00000  Uiso   1.00
C606   C     0.58283   0.42780   0.50000   0.00000  Uiso   1.00
C607   C     0.40712   0.43892   0.50000   0.00000  Uiso   1.00
C608   C     0.40712   0.46114   0.50000   0.00000  Uiso   1.00
C609   C     0.44226   0.43892   0.50000   0.00000  Uiso   1.00
C610   C     0.42469   0.44447   0.50000   0.00000  Uiso   1.00
C611   C     0.42469   0.45558   0.50000   0.00000  Uiso   1.00
C612   C     0.44226   0.46114   0.50000   0.00000  Uiso   1.00
C613   C     0.47740   0.43892   0.50000   0.00000  Uiso   1.00
C614   C     0.45983   0.44447   0.50000   0.00000  Uiso   1.00
C615   C     0.45983   0.45558   0.50000   0.00000  Uiso   1.00
C616   C     0.47740   0.46114   0.50000   0.00000  Uiso   1.00
C617   C     0.51254   0.43892   0.50000   0.00000  Uiso   1.00
C618   C     0.49497   0.44447   0.50000   0.00000  Uiso   1.00
C619   C     0.49497   0.45558   0.50000   0.00000  Uiso   1.00
C620   C     0.51254   0.46114   0.50000   0.00000  Uiso   1.00
C621   C     0.54769   0.43892   0.50000   0.00000  Uiso   1.00
C622   C     0.53012   0.44447   0.50000   0.00000  Uiso   1.00
C623   C     0.53012   0.45558   0.50000   0.00000  Uiso   1.00
C624   C     0.54769   0.46114   0.50000   0.00000  Uiso   1.00
C625   C     0.58283   0.43892   0.50000   0.00000  Uiso   1.00
C626   C     0.56526   0.44447   0.50000   0.00000  Uiso   1.00
C627   C     0.56526   0.45558   0.50000   0.00000  Uiso   1.00
C628   C     0.58283   0.46114   0.50000   0.00000  Uiso   1.00
C629   C     0.40712   0.47225   0.50000   0.00000  Uiso   1.00
C630   C     0.40712   0.49447   0.50000   0.00000  Uiso   1.00
C631   C     0.44226   0.47225   0.50000   0.00000  Uiso   1.00
C632   C     0.42469   0.47780   0.50000   0.00000  Uiso   1.00
C633   C     0.42469   0.48892   0.50000   0.00000  Uiso   1.00
C634   C     0.44226   0.49447   0.50000   0.00000  Uiso   1.00
C635   C     0.47740   0.47225   0.50000   0.00000  Uiso   1.00
C636   C     0.45983   0.47780   0.50000   0.00000  Uiso   1.00
C637   C     0.45983   0.48892   0.50000   0.00000  Uiso   1.00
C638   C     0.47740   0.49447   0.50000   0.00000  Uiso   1.00
C639   C     0.51254   0.47225   0.50000   0.00000  Uiso   1.00
C640   C     0.49497   0.47780   0.50000   0.00000  Uiso   1.00
C641   C     0.49497   0.48892   0.50000   0.00000  Uiso   1.00
C642   C     0.51254   0.49447   0.50000   0.00000  Uiso   1.00
C643   C     0.54769   0.47225   0.50000   0.00000  Uiso   1.00
C644   C     0.53012   0.47780   0.50000   0.00000  Uiso   1.00
C645   C     0.53012   0.48892   0.50000   0.00000  Uiso   1.00
C646   C     0.54769   0.49447   0.50000   0.00000  Uiso   1.00
C647   C     0.58283   0.47225   0.50000   0.00000  Uiso   1.00
C648   C     0.56526   0.47780   0.50000   0.00000  Uiso   1.00
C649   C     0.56526   0.48892   0.50000   0.00000  Uiso   1.00
C650   C     0.58283   0.49447   0.50000   0.00000  Uiso   1.00
C651   C     0.40712   0.50558   0.50000   0.00000  Uiso   1.00
C652   C     0.40712   0.52780   0.50000   0.00000  Uiso   1.00
C653   C     0.44226   0.50558   0.50000   0.00000  Uiso   1.00
C654   C     0.42469   0.51114   0.50000   0.00000  Uiso   1.00
C655   C     0.42469   0.52225   0.50000   0.00000  Uiso   1.00
C656   C     0.44226   0.52780   0.50000   0.00000  Uiso   1.00
C657   C     0.47740   0.50558   0.50000   0.00000  Uiso   1.00
C658   C     0.45983   0.51114   0.50000   0.00000  Uiso   1.00
C659   C     0.45983   0.52225   0.50000   0.00000  Uiso   1.00
C660   C     0.47740   0.52780   0.50000   0.00000  Uiso   1.00
C661   C     0.51254   0.50558   0.50000   0.00000  Uiso   1.00
C662   C     0.49497   0.51114   0.50000   0.00000  Uiso   1.00
C663   C     0.49497   0.52225   0.50000   0.00000  Uiso   1.00
C664   C     0.51254   0.52780   0.50000   0.00000  Uiso   1.00
C665   C     0.54769   0.50558   0.50000   0.00000  Uiso   1.00
C666   C     0.53012   0.51114   0.50000   0.00000  Uiso   1.00
C667   C     0.53012   0.52225   0.50000   0.00000  Uiso   1.00
C668   C     0.54769   0.52780   0.50000   0.00000  Uiso   1.00
C669   C     0.58283   0.50558   0.50000   0.00000  Uiso   1.00
C670   C     0.56526   0.51114   0.50000   0.00000  Uiso   1.00
C671   C     0.56526   0.52225   0.50000   0.00000  Uiso   1.00
C672   C     0.58283   0.52780   0.50000   0.00000  Uiso   1.00
C673   C     0.40712   0.53892   0.50000   0.00000  Uiso   1.00
C674   C     0.40712   0.56114   0.50000   0.00000  Uiso   1.00
C675   C     0.44226   0.53892   0.50000   0.00000  Uiso   1.00
C676   C     0.42469   0.54447   0.50000   0.00000  Uiso   1.00
C677   C     0.42469   0.55558   0.50000   0.00000  Uiso   1.00
C678   C     0.44226   0.56114   0.50000   0.00000  Uiso   1.00
C679   C     0.47740   0.53892   0.50000   0.00000  Uiso   1.00
C680   C     0.45983   0.54447   0.50000   0.00000  Uiso   1.00
C681   C     0.45983   0.55558   0.50000   0.00000  Uiso   1.00
C682   C     0.47740   0.56114   0.50000   0.00000  Uiso   1.00
C683   C     0.51254   0.53892   0.50000   0.00000  Uiso   1.00
C684   C     0.49497   0.54447   0.50000   0.00000  Uiso   1.00
C685   C     0.49497   0.55558   0.50000   0.00000  Uiso   1.00
C686   C     0.51254   0.56114   0.50000   0.00000  Uiso   1.00
C687   C     0.54769   0.53892   0.50000   0.00000  Uiso   1.00
C688   C     0.53012   0.54447   0.50000   0.00000  Uiso   1.00
C689   C     0.53012   0.55558   0.50000   0.00000  Uiso   1.00
C690   C     0.54769   0.56114   0.50000   0.00000  Uiso   1.00
C691   C     0.58283   0.53892   0.50000   0.00000  Uiso   1.00
C692   C     0.56526   0.54447   0.50000   0.00000  Uiso   1.00
C693   C     0.56526   0.55558   0.50000   0.00000  Uiso   1.00
C694   C     0.58283   0.56114   0.50000   0.00000  Uiso   1.00
C695   C     0.40712   0.57225   0.50000   0.00000  Uiso   1.00
C696   C     0.40712   0.59447   0.50000   0.00000  Uiso   1.00
C697   C     0.44226   0.57225   0.50000   0.00000  Uiso   1.00
C698   C     0.42469   0.57780   0.50000   0.00000  Uiso   1.00
C699   C     0.42469   0.58892   0.50000   0.00000  Uiso   1.00
C700   C     0.44226   0.59447   0.50000   0.00000  Uiso   1.00
C701   C     0.47740   0.57225   0.50000   0.00000  Uiso   1.00
C702   C     0.45983   0.57780   0.50000   0.00000  Uiso   1.00
C703   C     0.45983   0.58892   0.50000   0.00000  Uiso   1.00
C704   C     0.47740   0.59447   0.50000   0.00000  Uiso   1.00
C705   C     0.51254   0.57225   0.50000   0.00000  Uiso   1.00
C706   C     0.49497   0.57780   0.50000   0.00000  Uiso   1.00
C707   C     0.49497   0.58892   0.50000   0.00000  Uiso   1.00
C708   C     0.51254   0.59447   0.50000   0.00000  Uiso   1.00
C709   C     0.54769   0.57225   0.50000   0.00000  Uiso   1.00
C710   C     0.53012   0.57780   0.50000   0.00000  Uiso   1.00
C711   C     0.53012   0.58892   0.50000   0.00000  Uiso   1.00
C712   C     0.54769   0.59447   0.50000   0.00000  Uiso   1.00
C713   C     0.58283   0.57225   0.50000   0.00000  Uiso   1.00
C714   C     0.56526   0.57780   0.50000   0.00000  Uiso   1.00
C715   C     0.56526   0.58892   0.50000   0.00000  Uiso   1.00
C716   C     0.58283   0.59447   0.50000   0.00000  Uiso   1.00
C717   C     0.40712   0.60558   0.50000   0.00000  Uiso   1.00
C718   C     0.40712   0.62780   0.50000   0.00000  Uiso   1.00
C719   C     0.44226   0.60558   0.50000   0.00000  Uiso   1.00
C720   C     0.42469   0.61114   0.50000   0.00000  Uiso   1.00
C721   C     0.42469   0.62225   0.50000   0.00000  Uiso   1.00
C722   C     0.44226   0.62780   0.50000   0.00000  Uiso   1.00
C723   C     0.47740   0.60558   0.50000   0.00000  Uiso   1.00
C724   C     0.45983   0.61114   0.50000   0.00000  Uiso   1.00
C725   C     0.45983   0.62225   0.50000   0.00000  Uiso   1.00
C726   C     0.47740   0.62780   0.50000   0.00000  Uiso   1.00
C727   C     0.51254   0.60558   0.50000   0.00000  Uiso   1.00
C728   C     0.49497   0.61114   0.50000   0.00000  Uiso   1.00
C729   C     0.49497   0.62225   0.50000   0.00000  Uiso   1.00
C730   C     0.51254   0.62780   0.50000   0.00000  Uiso   1.00
C731   C     0.54769   0.60558   0.50000   0.00000  Uiso   1.00
C732   C     0.53012   0.61114   0.50000   0.00000  Uiso   1.00
C733   C     0.53012   0.62225   0.50000   0.00000  Uiso   1.00
C734   C     0.54769   0.62780   0.50000   0.00000  Uiso   1.00
C735   C     0.58283   0.60558   0.50000   0.00000  Uiso   1.00
C736   C     0.56526   0.61114   0.50000   0.00000  Uiso   1.00
C737   C     0.56526   0.62225   0.50000   0.00000  Uiso   1.00
C738   C     0.58283   0.62780   0.50000   0.00000  Uiso   1.00
C739   C     0.40712   0.63892   0.50000   0.00000  Uiso   1.00
C740   C     0.40712   0.66114   0.50000   0.00000  Uiso   1.00
C741   C     0.44226   0.63892   0.50000   0.00000  Uiso   1.00
C742   C     0.42469   0.64447   0.50000   0.00000  Uiso   1.00
C743   C     0.42469   0.65558   0.50000   0.00000  Uiso   1.00
C744   C     0.44226   0.66114   0.50000   0.00000  Uiso   1.00
C745   C     0.47740   0.63892   0.50000   0.00000  Uiso   1.00
C746   C     0.45983   0.64447   0.50000   0.00000  Uiso   1.00
C747   C     0.45983   0.65558   0.50000   0.00000  Uiso   1.00
C748   C     0.47740   0.66114   0.50000   0.00000  Uiso   1.00
C749   C     0.51254   0.63892   0.50000   0.00000  Uiso   1.00
C750   C     0.49497   0.64447   0.50000   0.00000  Uiso   1.00
C751   C     0.49497   0.65558   0.50000   0.00000  Uiso   1.00
C752   C     0.51254   0.66114   0.50000   0.00000  Uiso   1.00
C753   C     0.54769   0.63892   0.50000   0.00000  Uiso   1.00
C754   C     0.53012   0.64447   0.50000   0.00000  Uiso   1.00
C755   C     0.53012   0.65558   0.50000   0.00000  Uiso   1.00
C756   C     0.54769   0.66114   0.50000   0.00000  Uiso   1.00
C757   C     0.58283   0.63892   0.50000   0.00000  Uiso   1.00
C758   C     0.56526   0.64447   0.50000   0.00000  Uiso   1.00
C759   C     0.56526   0.65558   0.50000   0.00000  Uiso   1.00
C760   C     0.58283   0.66114   0.50000   0.00000  Uiso   1.00
C761   C     0.40712   0.67225   0.50000   0.00000  Uiso   1.00
C762   C     0.40712   0.69447   0.50000   0.00000  Uiso   1.00
C763   C     0.44226   0.67225   0.50000   0.00000  Uiso   1.00
C764   C     0.42469   0.67780   0.50000   0.00000  Uiso   1.00
C765   C     0.42469   0.68892   0.50000   0.00000  Uiso   1.00
C766   C     0.44226   0.69447   0.50000   0.00000  Uiso   1.00
C767   C     0.47740   0.67225   0.50000   0.00000  Uiso   1.00
C768   C     0.45983   0.67780   0.50000   0.00000  Uiso   1.00
C769   C     0.45983   0.68892   0.50000   0.00000  Uiso   1.00
C770   C     0.47740   0.69447   0.50000   0.00000  Uiso   1.00
C771   C     0.51254   0.67225   0.50000   0.00000  Uiso   1.00
C772   C     0.49497   0.67780   0.50000   0.00000  Uiso   1.00
C773   C     0.49497   0.68892   0.50000   0.00000  Uiso   1.00
C774   C     0.51254   0.69447   0.50000   0.00000  Uiso   1.00
C775   C     0.54769   0.67225   0.50000   0.00000  Uiso   1.00
C776   C     0.53012   0.67780   0.50000   0.00000  Uiso   1.00
C777   C     0.53012   0.68892   0.50000   0.00000  Uiso   1.00
C778   C     0.54769   0.69447   0.50000   0.00000  Uiso   1.00
C779   C     0.58283   0.67225   0.50000   0.00000  Uiso   1.00
C780   C     0.56526   0.67780   0.50000   0.00000  Uiso   1.00
C781   C     0.56526   0.68892   0.50000   0.00000  Uiso   1.00
C782   C     0.58283   0.69447   0.50000   0.00000  Uiso   1.00
C783   C     0.40712   0.70558   0.50000   0.00000  Uiso   1.00
C784   C     0.40712   0.72780   0.50000   0.00000  Uiso   1.00
C785   C     0.44226   0.70558   0.50000   0.00000  Uiso   1.00
C786   C     0.42469   0.71114   0.50000   0.00000  Uiso   1.00
C787   C     0.42469   0.72225   0.50000   0.00000  Uiso   1.00
C788   C     0.44226   0.72780   0.50000   0.00000  Uiso   1.00
C789   C     0.47740   0.70558   0.50000   0.00000  Uiso   1.00
C790   C     0.45983   0.71114   0.50000   0.00000  Uiso   1.00
C791   C     0.45983   0.72225   0.50000   0.00000  Uiso   1.00
C792   C     0.47740   0.72780   0.50000   0.00000  Uiso   1.00
C793   C     0.51254   0.70558   0.50000   0.00000  Uiso   1.00
C794   C     0.49497   0.71114   0.50000   0.00000  Uiso   1.00
C795   C     0.49497   0.72225   0.50000   0.00000  Uiso   1.00
C796   C     0.51254   0.72780   0.50000   0.00000  Uiso   1.00
C797   C     0.54769   0.70558   0.50000   0.00000  Uiso   1.00
C798   C     0.53012   0.71114   0.50000   0.00000  Uiso   1.00
C799   C     0.53012   0.72225   0.50000   0.00000  Uiso   1.00
C800   C     0.54769   0.72780   0.50000   0.00000  Uiso   1.00
C801   C     0.58283   0.70558   0.50000   0.00000  Uiso   1.00
C802   C     0.56526   0.71114   0.50000   0.00000  Uiso   1.00
C803   C     0.56526   0.72225   0.50000   0.00000  Uiso   1.00
C804   C     0.58283   0.72780   0.50000   0.00000  Uiso   1.00
C805   C     0.40712   0.73892   0.50000   0.00000  Uiso   1.00
C806   C     0.40712   0.76114   0.50000   0.00000  Uiso   1.00
C807   C     0.44226   0.73892   0.50000   0.00000  Uiso   1.00
C808   C     0.42469   0.74447   0.50000   0.00000  Uiso   1.00
C809   C     0.42469   0.75558   0.50000   0.00000  Uiso   1.00
C810   C     0.44226   0.76114   0.50000   0.00000  Uiso   1.00
C811   C     0.47740   0.73892   0.50000   0.00000  Uiso   1.00
C812   C     0.45983   0.74447   0.50000   0.00000  Uiso   1.00
C813   C     0.45983   0.75558   0.50000   0.00000  Uiso   1.00
C814   C     0.47740   0.76114   0.50000   0.00000  Uiso   1.00
C815   C     0.51254   0.73892   0.50000   0.00000  Uiso   1.00
C816   C     0.49497   0.74447   0.50000   0.00000  Uiso   1.00
C817   C     0.49497   0.75558   0.50000   0.00000  Uiso   1.00
C818   C     0.51254   0.76114   0.50000   0.00000  Uiso   1.00
C819   C     0.54769   0.73892   0.50000   0.00000  Uiso   1.00
C820   C     0.53012   0.74447   0.50000   0.00000  Uiso   1.00
C821   C     0.53012   0.75558   0.50000   0.00000  Uiso   1.00
C822   C     0.54769   0.76114   0.50000   0.00000  Uiso   1.00
C823   C     0.58283   0.73892   0.50000   0.00000  Uiso   1.00
C824   C     0.56526   0.74447   0.50000   0.00000  Uiso   1.00
C825   C     0.56526   0.75558   0.50000   0.00000  Uiso   1.00
C826   C     0.58283   0.76114   0.50000   0.00000  Uiso   1.00
C827   C     0.40712   0.77225   0.50000   0.00000  Uiso   1.00
C828   C     0.40712   0.79447   0.50000   0.00000  Uiso   1.00
C829   C     0.44226   0.77225   0.50000   0.00000  Uiso   1.00
C830   C     0.42469   0.77780   0.50000   0.00000  Uiso   1.00
C831   C     0.42469   0.78892   0.50000   0.00000  Uiso   1.00
C832   C     0.44226   0.79447   0.50000   0.00000  Uiso   1.00
C833   C     0.47740   0.77225   0.50000   0.00000  Uiso   1.00
C834   C     0.45983   0.77780   0.50000   0.00000  Uiso   1.00
C835   C     0.45983   0.78892   0.50000   0.00000  Uiso   1.00
C836   C     0.47740   0.79447   0.50000   0.00000  Uiso   1.00
C837   C     0.51254   0.77225   0.50000   0.00000  Uiso   1.00
C838   C     0.49497   0.77780   0.50000   0.00000  Uiso   1.00
C839   C     0.49497   0.78892   0.50000   0.00000  Uiso   1.00
C840   C     0.51254   0.79447   0.50000   0.00000  Uiso   1.00
C841   C     0.54769   0.77225   0.50000   0.00000  Uiso   1.00
C842   C     0.53012   0.77780   0.50000   0.00000  Uiso   1.00
C843   C     0.53012   0.78892   0.50000   0.00000  Uiso   1.00
C844   C     0.54769   0.79447   0.50000   0.00000  Uiso   1.00
C845   C     0.58283   0.77225   0.50000   0.00000  Uiso   1.00
C846   C     0.56526   0.77780   0.50000   0.00000  Uiso   1.00
C847   C     0.56526   0.78892   0.50000   0.00000  Uiso   1.00
C848   C     0.58283   0.79447   0.50000   0.00000  Uiso   1.00
C849   C     0.40712   0.80558   0.50000   0.00000  Uiso   1.00
C850   C     0.40712   0.82780   0.50000   0.00000  Uiso   1.00
C851   C     0.44226   0.80558   0.50000   0.00000  Uiso   1.00
C852   C     0.42469   0.81114   0.50000   0.00000  Uiso   1.00
C853   C     0.42469   0.82225   0.50000   0.00000  Uiso   1.00
C854   C     0.44226   0.82780   0.50000   0.00000  Uiso   1.00
C855   C     0.47740   0.80558   0.50000   0.00000  Uiso   1.00
C856   C     0.45983   0.81114   0.50000   0.00000  Uiso   1.00
C857   C     0.45983   0.82225   0.50000   0.00000  Uiso   1.00
C858   C     0.47740   0.82780   0.50000   0.00000  Uiso   1.00
C859   C     0.51254   0.80558   0.50000   0.00000  Uiso   1.00
C860   C     0.49497   0.81114   0.50000   0.00000  Uiso   1.00
C861   C     0.49497   0.82225   0.50000   0.00000  Uiso   1.00
C862   C     0.51254   0.82780   0.50000   0.00000  Uiso   1.00
C863   C     0.54769   0.80558   0.50000   0.00000  Uiso   1.00
C864   C     0.53012   0.81114   0.50000   0.00000  Uiso   1.00
C865   C     0.53012   0.82225   0.50000   0.00000  Uiso   1.00
C866   C     0.54769   0.82780   0.50000   0.00000  Uiso   1.00
C867   C     0.58283   0.80558   0.50000   0.00000  Uiso   1.00
C868   C     0.56526   0.81114   0.50000   0.00000  Uiso   1.00
C869   C     0.56526   0.82225   0.50000   0.00000  Uiso   1.00
C870   C     0.58283   0.82780   0.50000   0.00000  Uiso   1.00
N871   N     0.16112   0.83892   0.50000   0.00000  Uiso   1.00
N872   N     0.14354   0.84447   0.50000   0.00000  Uiso   1.00
N873   N     0.14354   0.85558   0.50000   0.00000  Uiso   1.00
N874   N     0.16112   0.86114   0.50000   0.00000  Uiso   1.00
N875   N     0.19626   0.83892   0.50000   0.00000  Uiso   1.00
N876   N     0.17869   0.84447   0.50000   0.00000  Uiso   1.00
N877   N     0.17869   0.85558   0.50000   0.00000  Uiso   1.00
N878   N     0.19626   0.86114   0.50000   0.00000  Uiso   1.00
N879   N     0.23140   0.83892   0.50000   0.00000  Uiso   1.00
N880   N     0.21383   0.84447   0.50000   0.00000  Uiso   1.00
N881   N     0.21383   0.85558   0.50000   0.00000  Uiso   1.00
N882   N     0.23140   0.86114   0.50000   0.00000  Uiso   1.00
N883   N     0.26654   0.83892   0.50000   0.00000  Uiso   1.00
N884   N     0.24897   0.84447   0.50000   0.00000  Uiso   1.00
N885   N     0.24897   0.85558   0.50000   0.00000  Uiso   1.00
N886   N     0.26654   0.86114   0.50000   0.00000  Uiso   1.00
N887   N     0.30169   0.83892   0.50000   0.00000  Uiso   1.00
N888   N     0.28412   0.84447   0.50000   0.00000  Uiso   1.00
N889   N     0.28412   0.85558   0.50000   0.00000  Uiso   1.00
N890   N     0.30169   0.86114   0.50000   0.00000  Uiso   1.00
N891   N     0.33683   0.83892   0.50000   0.00000  Uiso   1.00
N892   N     0.31926   0.84447   0.50000   0.00000  Uiso   1.00
N893   N     0.31926   0.85558   0.50000   0.00000  Uiso   1.00
N894   N     0.33683   0.86114   0.50000   0.00000  Uiso   1.00
N895   N     0.37197   0.83892   0.50000   0.00000  Uiso   1.00
N896   N     0.35440   0.84447   0.50000   0.00000  Uiso   1.00
N897   N     0.35440   0.85558   0.50000   0.00000  Uiso   1.00
N898   N     0.37197   0.86114   0.50000   0.00000  Uiso   1.00
N899   N     0.40712   0.83892   0.50000   0.00000  Uiso   1.00
N900   N     0.38954   0.84447   0.50000   0.00000  Uiso   1.00
N901   N     0.38954   0.85558   0.50000   0.00000  Uiso   1.00
N902   N     0.40712   0.86114   0.50000   0.00000  Uiso   1.00
N903   N     0.44226   0.83892   0.50000   0.00000  Uiso   1.00
N904   N     0.42469   0.84447   0.50000   0.00000  Uiso   1.00
N905   N     0.42469   0.85558   0.50000   0.00000  Uiso   1.00
N906   N     0.44226   0.86114   0.50000   0.00000  Uiso   1.00
N907   N     0.47740   0.83892   0.50000   0.00000  Uiso   1.00
N908   N     0.45983   0.84447   0.50000   0.00000  Uiso   1.00
N909   N     0.45983   0.85558   0.50000   0.00000  Uiso   1.00
N910   N     0.47740   0.86114   0.50000   0.00000  Uiso   1.00
N911   N     0.51254   0.83892   0.50000   0.00000  Uiso   1.00
N912   N     0.49497   0.84447   0.50000   0.00000  Uiso   1.00
N913   N     0.49497   0.85558   0.50000   0.00000  Uiso   1.00
N914   N     0.51254   0.86114   0.50000   0.00000  Uiso   1.00
N915   N     0.54769   0.83892   0.50000   0.00000  Uiso   1.00
N916   N     0.53012   0.84447   0.50000   0.00000  Uiso   1.00
N917   N     0.53012   0.85558   0.50000   0.00000  Uiso   1.00
N918   N     0.54769   0.86114   0.50000   0.00000  Uiso   1.00
N919   N     0.58283   0.83892   0.50000   0.00000  Uiso   1.00
N920   N     0.56526   0.84447   0.50000   0.00000  Uiso   1.00
N921   N     0.56526   0.85558   0.50000   0.00000  Uiso   1.00
N922   N     0.58283   0.86114   0.50000   0.00000  Uiso   1.00
N923   N     0.61797   0.83892   0.50000   0.00000  Uiso   1.00
N924   N     0.60040   0.84447   0.50000   0.00000  Uiso   1.00
N925   N     0.60040   0.85558   0.50000   0.00000  Uiso   1.00
N926   N     0.61797   0.86114   0.50000   0.00000  Uiso   1.00
N927   N     0.65312   0.83892   0.50000   0.00000  Uiso   1.00
N928   N     0.63554   0.84447   0.50000   0.00000  Uiso   1.00
N929   N     0.63554   0.85558   0.50000   0.00000  Uiso   1.00
N930   N     0.65312   0.86114   0.50000   0.00000  Uiso   1.00
N931   N     0.68826   0.83892   0.50000   0.00000  Uiso   1.00
N932   N     0.67069   0.84447   0.50000   0.00000  Uiso   1.00
N933   N     0.67069   0.85558   0.50000   0.00000  Uiso   1.00
N934   N     0.68826   0.86114   0.50000   0.00000  Uiso   1.00
N935   N     0.72340   0.83892   0.50000   0.00000  Uiso   1.00
N936   N     0.70583   0.84447   0.50000   0.00000  Uiso   1.00
N937   N     0.70583   0.85558   0.50000   0.00000  Uiso   1.00
N938   N     0.72340   0.86114   0.50000   0.00000  Uiso   1.00
N939   N     0.75854   0.83892   0.50000   0.00000  Uiso   1.00
N940   N     0.74097   0.84447   0.50000   0.00000  Uiso   1.00
N941   N     0.74097   0.85558   0.50000   0.00000  Uiso   1.00
N942   N     0.75854   0.86114   0.50000   0.00000  Uiso   1.00
N943   N     0.79369   0.83892   0.50000   0.00000  Uiso   1.00
N944   N     0.77612   0.84447   0.50000   0.00000  Uiso   1.00
N945   N     0.77612   0.85558   0.50000   0.00000  Uiso   1.00
N946   N     0.79369   0.86114   0.50000   0.00000  Uiso   1.00
N947   N     0.82883   0.83892   0.50000   0.00000  Uiso   1.00
N948   N     0.81126   0.84447   0.50000   0.00000  Uiso   1.00
N949   N     0.81126   0.85558   0.50000   0.00000  Uiso   1.00
N950   N     0.82883   0.86114   0.50000   0.00000  Uiso   1.00
N951   N     0.84640   0.84447   0.50000   0.00000  Uiso   1.00
N952   N     0.84640   0.85558   0.50000   0.00000  Uiso   1.00
H953   H     0.12944   0.84001   0.50000   0.00000  Uiso   1.00
H954   H     0.12944   0.86004   0.50000   0.00000  Uiso   1.00
H955   H     0.86051   0.84001   0.50000   0.00000  Uiso   1.00
H956   H     0.86051   0.86004   0.50000   0.00000  Uiso   1.00
N957   N     0.16112   0.87225   0.50000   0.00000  Uiso   1.00
N958   N     0.14354   0.87780   0.50000   0.00000  Uiso   1.00
N959   N     0.14354   0.88892   0.50000   0.00000  Uiso   1.00
N960   N     0.16112   0.89447   0.50000   0.00000  Uiso   1.00
N961   N     0.19626   0.87225   0.50000   0.00000  Uiso   1.00
N962   N     0.17869   0.87780   0.50000   0.00000  Uiso   1.00
N963   N     0.17869   0.88892   0.50000   0.00000  Uiso   1.00
N964   N     0.19626   0.89447   0.50000   0.00000  Uiso   1.00
N965   N     0.23140   0.87225   0.50000   0.00000  Uiso   1.00
N966   N     0.21383   0.87780   0.50000   0.00000  Uiso   1.00
N967   N     0.21383   0.88892   0.50000   0.00000  Uiso   1.00
N968   N     0.23140   0.89447   0.50000   0.00000  Uiso   1.00
N969   N     0.26654   0.87225   0.50000   0.00000  Uiso   1.00
N970   N     0.24897   0.87780   0.50000   0.00000  Uiso   1.00
N971   N     0.24897   0.88892   0.50000   0.00000  Uiso   1.00
N972   N     0.26654   0.89447   0.50000   0.00000  Uiso   1.00
N973   N     0.30169   0.87225   0.50000   0.00000  Uiso   1.00
N974   N     0.28412   0.87780   0.50000   0.00000  Uiso   1.00
N975   N     0.28412   0.88892   0.50000   0.00000  Uiso   1.00
N976   N     0.30169   0.89447   0.50000   0.00000  Uiso   1.00
N977   N     0.33683   0.87225   0.50000   0.00000  Uiso   1.00
N978   N     0.31926   0.87780   0.50000   0.00000  Uiso   1.00
N979   N     0.31926   0.88892   0.50000   0.00000  Uiso   1.00
N980   N     0.33683   0.89447   0.50000   0.00000  Uiso   1.00
N981   N     0.37197   0.87225   0.50000   0.00000  Uiso   1.00
N982   N     0.35440   0.87780   0.50000   0.00000  Uiso   1.00
N983   N     0.35440   0.88892   0.50000   0.00000  Uiso   1.00
N984   N     0.37197   0.89447   0.50000   0.00000  Uiso   1.00
N985   N     0.40712   0.87225   0.50000   0.00000  Uiso   1.00
N986   N     0.38954   0.87780   0.50000   0.00000  Uiso   1.00
N987   N     0.38954   0.88892   0.50000   0.00000  Uiso   1.00
N988   N     0.40712   0.89447   0.50000   0.00000  Uiso   1.00
N989   N     0.44226   0.87225   0.50000   0.00000  Uiso   1.00
N990   N     0.42469   0.87780   0.50000   0.00000  Uiso   1.00
N991   N     0.42469   0.88892   0.50000   0.00000  Uiso   1.00
N992   N     0.44226   0.89447   0.50000   0.00000  Uiso   1.00
N993   N     0.47740   0.87225   0.50000   0.00000  Uiso   1.00
N994   N     0.45983   0.87780   0.50000   0.00000  Uiso   1.00
N995   N     0.45983   0.88892   0.50000   0.00000  Uiso   1.00
N996   N     0.47740   0.89447   0.50000   0.00000  Uiso   1.00
N997   N     0.51254   0.87225   0.50000   0.00000  Uiso   1.00
N998   N     0.49497   0.87780   0.50000   0.00000  Uiso   1.00
N999   N     0.49497   0.88892   0.50000   0.00000  Uiso   1.00
N1000  N     0.51254   0.89447   0.50000   0.00000  Uiso   1.00
N1001  N     0.54769   0.87225   0.50000   0.00000  Uiso   1.00
N1002  N     0.53012   0.87780   0.50000   0.00000  Uiso   1.00
N1003  N     0.53012   0.88892   0.50000   0.00000  Uiso   1.00
N1004  N     0.54769   0.89447   0.50000   0.00000  Uiso   1.00
N1005  N     0.58283   0.87225   0.50000   0.00000  Uiso   1.00
N1006  N     0.56526   0.87780   0.50000   0.00000  Uiso   1.00
N1007  N     0.56526   0.88892   0.50000   0.00000  Uiso   1.00
N1008  N     0.58283   0.89447   0.50000   0.00000  Uiso   1.00
N1009  N     0.61797   0.87225   0.50000   0.00000  Uiso   1.00
N1010  N     0.60040   0.87780   0.50000   0.00000  Uiso   1.00
N1011  N     0.60040   0.88892   0.50000   0.00000  Uiso   1.00
N1012  N     0.61797   0.89447   0.50000   0.00000  Uiso   1.00
N1013  N     0.65312   0.87225   0.50000   0.00000  Uiso   1.00
N1014  N     0.63554   0.87780   0.50000   0.00000  Uiso   1.00
N1015  N     0.63554   0.88892   0.50000   0.00000  Uiso   1.00
N1016  N     0.65312   0.89447   0.50000   0.00000  Uiso   1.00
N1017  N     0.68826   0.87225   0.50000   0.00000  Uiso   1.00
N1018  N     0.67069   0.87780   0.50000   0.00000  Uiso   1.00
N1019  N     0.67069   0.88892   0.50000   0.00000  Uiso   1.00
N1020  N     0.68826   0.89447   0.50000   0.00000  Uiso   1.00
N1021  N     0.72340   0.87225   0.50000   0.00000  Uiso   1.00
N1022  N     0.70583   0.87780   0.50000   0.00000  Uiso   1.00
N1023  N     0.70583   0.88892   0.50000   0.00000  Uiso   1.00
N1024  N     0.72340   0.89447   0.50000   0.00000  Uiso   1.00
N1025  N     0.75854   0.87225   0.50000   0.00000  Uiso   1.00
N1026  N     0.74097   0.87780   0.50000   0.00000  Uiso   1.00
N1027  N     0.74097   0.88892   0.50000   0.00000  Uiso   1.00
N1028  N     0.75854   0.89447   0.50000   0.00000  Uiso   1.00
N1029  N     0.79369   0.87225   0.50000   0.00000  Uiso   1.00
N1030  N     0.77612   0.87780   0.50000   0.00000  Uiso   1.00
N1031  N     0.77612   0.88892   0.50000   0.00000  Uiso   1.00
N1032  N     0.79369   0.89447   0.50000   0.00000  Uiso   1.00
N1033  N     0.82883   0.87225   0.50000   0.00000  Uiso   1.00
N1034  N     0.81126   0.87780   0.50000   0.00000  Uiso   1.00
N1035  N     0.81126   0.88892   0.50000   0.00000  Uiso   1.00
N1036  N     0.82883   0.89447   0.50000   0.00000  Uiso   1.00
N1037  N     0.84640   0.87780   0.50000   0.00000  Uiso   1.00
N1038  N     0.84640   0.88892   0.50000   0.00000  Uiso   1.00
H1039  H     0.12944   0.87335   0.50000   0.00000  Uiso   1.00
H1040  H     0.12944   0.89337   0.50000   0.00000  Uiso   1.00
H1041  H     0.86051   0.87335   0.50000   0.00000  Uiso   1.00
H1042  H     0.86051   0.89337   0.50000   0.00000  Uiso   1.00
N1043  N     0.16112   0.90558   0.50000   0.00000  Uiso   1.00
N1044  N     0.14354   0.91114   0.50000   0.00000  Uiso   1.00
N1045  N     0.14354   0.92225   0.50000   0.00000  Uiso   1.00
N1046  N     0.16112   0.92780   0.50000   0.00000  Uiso   1.00
N1047  N     0.19626   0.90558   0.50000   0.00000  Uiso   1.00
N1048  N     0.17869   0.91114   0.50000   0.00000  Uiso   1.00
N1049  N     0.17869   0.92225   0.50000   0.00000  Uiso   1.00
N1050  N     0.19626   0.92780   0.50000   0.00000  Uiso   1.00
N1051  N     0.23140   0.90558   0.50000   0.00000  Uiso   1.00
N1052  N     0.21383   0.91114   0.50000   0.00000  Uiso   1.00
N1053  N     0.21383   0.92225   0.50000   0.00000  Uiso   1.00
N1054  N     0.23140   0.92780   0.50000   0.00000  Uiso   1.00
N1055  N     0.26654   0.90558   0.50000   0.00000  Uiso   1.00
N1056  N     0.24897   0.91114   0.50000   0.00000  Uiso   1.00
N1057  N     0.24897   0.92225   0.50000   0.00000  Uiso   1.00
N1058  N     0.26654   0.92780   0.50000   0.00000  Uiso   1.00
N1059  N     0.30169   0.90558   0.50000   0.00000  Uiso   1.00
N1060  N     0.28412   0.91114   0.50000   0.00000  Uiso   1.00
N1061  N     0.28412   0.92225   0.50000   0.00000  Uiso   1.00
N1062  N     0.30169   0.92780   0.50000   0.00000  Uiso   1.00
N1063  N     0.33683   0.90558   0.50000   0.00000  Uiso   1.00
N1064  N     0.31926   0.91114   0.50000   0.00000  Uiso   1.00
N1065  N     0.31926   0.92225   0.50000   0.00000  Uiso   1.00
N1066  N     0.33683   0.92780   0.50000   0.00000  Uiso   1.00
N1067  N     0.37197   0.90558   0.50000   0.00000  Uiso   1.00
N1068  N     0.35440   0.91114   0.50000   0.00000  Uiso   1.00
N1069  N     0.35440   0.92225   0.50000   0.00000  Uiso   1.00
N1070  N     0.37197   0.92780   0.50000   0.00000  Uiso   1.00
N1071  N     0.40712   0.90558   0.50000   0.00000  Uiso   1.00
N1072  N     0.38954   0.91114   0.50000   0.00000  Uiso   1.00
N1073  N     0.38954   0.92225   0.50000   0.00000  Uiso   1.00
N1074  N     0.40712   0.92780   0.50000   0.00000  Uiso   1.00
N1075  N     0.44226   0.90558   0.50000   0.00000  Uiso   1.00
N1076  N     0.42469   0.91114   0.50000   0.00000  Uiso   1.00
N1077  N     0.42469   0.92225   0.50000   0.00000  Uiso   1.00
N1078  N     0.44226   0.92780   0.50000   0.00000  Uiso   1.00
N1079  N     0.47740   0.90558   0.50000   0.00000  Uiso   1.00
N1080  N     0.45983   0.91114   0.50000   0.00000  Uiso   1.00
N1081  N     0.45983   0.92225   0.50000   0.00000  Uiso   1.00
N1082  N     0.47740   0.92780   0.50000   0.00000  Uiso   1.00
N1083  N     0.51254   0.90558   0.50000   0.00000  Uiso   1.00
N1084  N     0.49497   0.91114   0.50000   0.00000  Uiso   1.00
N1085  N     0.49497   0.92225   0.50000   0.00000  Uiso   1.00
N1086  N     0.51254   0.92780   0.50000   0.00000  Uiso   1.00
N1087  N     0.54769   0.90558   0.50000   0.00000  Uiso   1.00
N1088  N     0.53012   0.91114   0.50000   0.00000  Uiso   1.00
N1089  N     0.53012   0.92225   0.50000   0.00000  Uiso   1.00
N1090  N     0.54769   0.92780   0.50000   0.00000  Uiso   1.00
N1091  N     0.58283   0.90558   0.50000   0.00000  Uiso   1.00
N1092  N     0.56526   0.91114   0.50000   0.00000  Uiso   1.00
N1093  N     0.56526   0.92225   0.50000   0.00000  Uiso   1.00
N1094  N     0.58283   0.92780   0.50000   0.00000  Uiso   1.00
N1095  N     0.61797   0.90558   0.50000   0.00000  Uiso   1.00
N1096  N     0.60040   0.91114   0.50000   0.00000  Uiso   1.00
N1097  N     0.60040   0.92225   0.50000   0.00000  Uiso   1.00
N1098  N     0.61797   0.92780   0.50000   0.00000  Uiso   1.00
N1099  N     0.65312   0.90558   0.50000   0.00000  Uiso   1.00
N1100  N     0.63554   0.91114   0.50000   0.00000  Uiso   1.00
N1101  N     0.63554   0.92225   0.50000   0.00000  Uiso   1.00
N1102  N     0.65312   0.92780   0.50000   0.00000  Uiso   1.00
N1103  N     0.68826   0.90558   0.50000   0.00000  Uiso   1.00
N1104  N     0.67069   0.91114   0.50000   0.00000  Uiso   1.00
N1105  N     0.67069   0.92225   0.50000   0.00000  Uiso   1.00
N1106  N     0.68826   0.92780   0.50000   0.00000  Uiso   1.00
N1107  N     0.72340   0.90558   0.50000   0.00000  Uiso   1.00
N1108  N     0.70583   0.91114   0.50000   0.00000  Uiso   1.00
N1109  N     0.70583   0.92225   0.50000   0.00000  Uiso   1.00
N1110  N     0.72340   0.92780   0.50000   0.00000  Uiso   1.00
N1111  N     0.75854   0.90558   0.50000   0.00000  Uiso   1.00
N1112  N     0.74097   0.91114   0.50000   0.00000  Uiso   1.00
N1113  N     0.74097   0.92225   0.50000   0.00000  Uiso   1.00
N1114  N     0.75854   0.92780   0.50000   0.00000  Uiso   1.00
N1115  N     0.79369   0.90558   0.50000   0.00000  Uiso   1.00
N1116  N     0.77612   0.91114   0.50000   0.00000  Uiso   1.00
N1117  N     0.77612   0.92225   0.50000   0.00000  Uiso   1.00
N1118  N     0.79369   0.92780   0.50000   0.00000  Uiso   1.00
N1119  N     0.82883   0.90558   0.50000   0.00000  Uiso   1.00
N1120  N     0.81126   0.91114   0.50000   0.00000  Uiso   1.00
N1121  N     0.81126   0.92225   0.50000   0.00000  Uiso   1.00
N1122  N     0.82883   0.92780   0.50000   0.00000  Uiso   1.00
N1123  N     0.84640   0.91114   0.50000   0.00000  Uiso   1.00
N1124  N     0.84640   0.92225   0.50000   0.00000  Uiso   1.00
H1125  H     0.12944   0.90668   0.50000   0.00000  Uiso   1.00
H1126  H     0.12944   0.92671   0.50000   0.00000  Uiso   1.00
H1127  H     0.86051   0.90668   0.50000   0.00000  Uiso   1.00
H1128  H     0.86051   0.92671   0.50000   0.00000  Uiso   1.00
N1129  N     0.16112   0.93892   0.50000   0.00000  Uiso   1.00
N1130  N     0.14354   0.94447   0.50000   0.00000  Uiso   1.00
N1131  N     0.14354   0.95558   0.50000   0.00000  Uiso   1.00
N1132  N     0.16112   0.96114   0.50000   0.00000  Uiso   1.00
N1133  N     0.19626   0.93892   0.50000   0.00000  Uiso   1.00
N1134  N     0.17869   0.94447   0.50000   0.00000  Uiso   1.00
N1135  N     0.17869   0.95558   0.50000   0.00000  Uiso   1.00
N1136  N     0.19626   0.96114   0.50000   0.00000  Uiso   1.00
N1137  N     0.23140   0.93892   0.50000   0.00000  Uiso   1.00
N1138  N     0.21383   0.94447   0.50000   0.00000  Uiso   1.00
N1139  N     0.21383   0.95558   0.50000   0.00000  Uiso   1.00
N1140  N     0.23140   0.96114   0.50000   0.00000  Uiso   1.00
N1141  N     0.26654   0.93892   0.50000   0.00000  Uiso   1.00
N1142  N     0.24897   0.94447   0.50000   0.00000  Uiso   1.00
N1143  N     0.24897   0.95558   0.50000   0.00000  Uiso   1.00
N1144  N     0.26654   0.96114   0.50000   0.00000  Uiso   1.00
N1145  N     0.30169   0.93892   0.50000   0.00000  Uiso   1.00
N1146  N     0.28412   0.94447   0.50000   0.00000  Uiso   1.00
N1147  N     0.28412   0.95558   0.50000   0.00000  Uiso   1.00
N1148  N     0.30169   0.96114   0.50000   0.00000  Uiso   1.00
N1149  N     0.33683   0.93892   0.50000   0.00000  Uiso   1.00
N1150  N     0.31926   0.94447   0.50000   0.00000  Uiso   1.00
N1151  N     0.31926   0.95558   0.50000   0.00000  Uiso   1.00
N1152  N     0.33683   0.96114   0.50000   0.00000  Uiso   1.00
N1153  N     0.37197   0.93892   0.50000   0.00000  Uiso   1.00
N1154  N     0.35440   0.94447   0.50000   0.00000  Uiso   1.00
N1155  N     0.35440   0.95558   0.50000   0.00000  Uiso   1.00
N1156  N     0.37197   0.96114   0.50000   0.00000  Uiso   1.00
N1157  N     0.40712   0.93892   0.50000   0.00000  Uiso   1.00
N1158  N     0.38954   0.94447   0.50000   0.00000  Uiso   1.00
N1159  N     0.38954   0.95558   0.50000   0.00000  Uiso   1.00
N1160  N     0.40712   0.96114   0.50000   0.00000  Uiso   1.00
N1161  N     0.44226   0.93892   0.50000   0.00000  Uiso   1.00
N1162  N     0.42469   0.94447   0.50000   0.00000  Uiso   1.00
N1163  N     0.42469   0.95558   0.50000   0.00000  Uiso   1.00
N1164  N     0.44226   0.96114   0.50000   0.00000  Uiso   1.00
N1165  N     0.47740   0.93892   0.50000   0.00000  Uiso   1.00
N1166  N     0.45983   0.94447   0.50000   0.00000  Uiso   1.00
N1167  N     0.45983   0.95558   0.50000   0.00000  Uiso   1.00
N1168  N     0.47740   0.96114   0.50000   0.00000  Uiso   1.00
N1169  N     0.51254   0.93892   0.50000   0.00000  Uiso   1.00
N1170  N     0.49497   0.94447   0.50000   0.00000  Uiso   1.00
N1171  N     0.49497   0.95558   0.50000   0.00000  Uiso   1.00
N1172  N     0.51254   0.96114   0.50000   0.00000  Uiso   1.00
N1173  N     0.54769   0.93892   0.50000   0.00000  Uiso   1.00
N1174  N     0.53012   0.94447   0.50000   0.00000  Uiso   1.00
N1175  N     0.53012   0.95558   0.50000   0.00000  Uiso   1.00
N1176  N     0.54769   0.96114   0.50000   0.00000  Uiso   1.00
N1177  N     0.58283   0.93892   0.50000   0.00000  Uiso   1.00
N1178  N     0.56526   0.94447   0.50000   0.00000  Uiso   1.00
N1179  N     0.56526   0.95558   0.50000   0.00000  Uiso   1.00
N1180  N     0.58283   0.96114   0.50000   0.00000  Uiso   1.00
N1181  N     0.61797   0.93892   0.50000   0.00000  Uiso   1.00
N1182  N     0.60040   0.94447   0.50000   0.00000  Uiso   1.00
N1183  N     0.60040   0.95558   0.50000   0.00000  Uiso   1.00
N1184  N     0.61797   0.96114   0.50000   0.00000  Uiso   1.00
N1185  N     0.65312   0.93892   0.50000   0.00000  Uiso   1.00
N1186  N     0.63554   0.94447   0.50000   0.00000  Uiso   1.00
N1187  N     0.63554   0.95558   0.50000   0.00000  Uiso   1.00
N1188  N     0.65312   0.96114   0.50000   0.00000  Uiso   1.00
N1189  N     0.68826   0.93892   0.50000   0.00000  Uiso   1.00
N1190  N     0.67069   0.94447   0.50000   0.00000  Uiso   1.00
N1191  N     0.67069   0.95558   0.50000   0.00000  Uiso   1.00
N1192  N     0.68826   0.96114   0.50000   0.00000  Uiso   1.00
N1193  N     0.72340   0.93892   0.50000   0.00000  Uiso   1.00
N1194  N     0.70583   0.94447   0.50000   0.00000  Uiso   1.00
N1195  N     0.70583   0.95558   0.50000   0.00000  Uiso   1.00
N1196  N     0.72340   0.96114   0.50000   0.00000  Uiso   1.00
N1197  N     0.75854   0.93892   0.50000   0.00000  Uiso   1.00
N1198  N     0.74097   0.94447   0.50000   0.00000  Uiso   1.00
N1199  N     0.74097   0.95558   0.50000   0.00000  Uiso   1.00
N1200  N     0.75854   0.96114   0.50000   0.00000  Uiso   1.00
N1201  N     0.79369   0.93892   0.50000   0.00000  Uiso   1.00
N1202  N     0.77612   0.94447   0.50000   0.00000  Uiso   1.00
N1203  N     0.77612   0.95558   0.50000   0.00000  Uiso   1.00
N1204  N     0.79369   0.96114   0.50000   0.00000  Uiso   1.00
N1205  N     0.82883   0.93892   0.50000   0.00000  Uiso   1.00
N1206  N     0.81126   0.94447   0.50000   0.00000  Uiso   1.00
N1207  N     0.81126   0.95558   0.50000   0.00000  Uiso   1.00
N1208  N     0.82883   0.96114   0.50000   0.00000  Uiso   1.00
N1209  N     0.84640   0.94447   0.50000   0.00000  Uiso   1.00
N1210  N     0.84640   0.95558   0.50000   0.00000  Uiso   1.00
H1211  H     0.12944   0.94001   0.50000   0.00000  Uiso   1.00
H1212  H     0.12944   0.96004   0.50000   0.00000  Uiso   1.00
H1213  H     0.86051   0.94001   0.50000   0.00000  Uiso   1.00
H1214  H     0.86051   0.96004   0.50000   0.00000  Uiso   1.00
N1215  N     0.16112   0.97225   0.50000   0.00000  Uiso   1.00
N1216  N     0.14354   0.97780   0.50000   0.00000  Uiso   1.00
N1217  N     0.14354   0.98892   0.50000   0.00000  Uiso   1.00
N1218  N     0.16112   0.99447   0.50000   0.00000  Uiso   1.00
N1219  N     0.19626   0.97225   0.50000   0.00000  Uiso   1.00
N1220  N     0.17869   0.97780   0.50000   0.00000  Uiso   1.00
N1221  N     0.17869   0.98892   0.50000   0.00000  Uiso   1.00
N1222  N     0.19626   0.99447   0.50000   0.00000  Uiso   1.00
N1223  N     0.23140   0.97225   0.50000   0.00000  Uiso   1.00
N1224  N     0.21383   0.97780   0.50000   0.00000  Uiso   1.00
N1225  N     0.21383   0.98892   0.50000   0.00000  Uiso   1.00
N1226  N     0.23140   0.99447   0.50000   0.00000  Uiso   1.00
N1227  N     0.26654   0.97225   0.50000   0.00000  Uiso   1.00
N1228  N     0.24897   0.97780   0.50000   0.00000  Uiso   1.00
N1229  N     0.24897   0.98892   0.50000   0.00000  Uiso   1.00
N1230  N     0.26654   0.99447   0.50000   0.00000  Uiso   1.00
N1231  N     0.30169   0.97225   0.50000   0.00000  Uiso   1.00
N1232  N     0.28412   0.97780   0.50000   0.00000  Uiso   1.00
N1233  N     0.28412   0.98892   0.50000   0.00000  Uiso   1.00
N1234  N     0.30169   0.99447   0.50000   0.00000  Uiso   1.00
N1235  N     0.33683   0.97225   0.50000   0.00000  Uiso   1.00
N1236  N     0.31926   0.97780   0.50000   0.00000  Uiso   1.00
N1237  N     0.31926   0.98892   0.50000   0.00000  Uiso   1.00
N1238  N     0.33683   0.99447   0.50000   0.00000  Uiso   1.00
N1239  N     0.37197   0.97225   0.50000   0.00000  Uiso   1.00
N1240  N     0.35440   0.97780   0.50000   0.00000  Uiso   1.00
N1241  N     0.35440   0.98892   0.50000   0.00000  Uiso   1.00
N1242  N     0.37197   0.99447   0.50000   0.00000  Uiso   1.00
N1243  N     0.40712   0.97225   0.50000   0.00000  Uiso   1.00
N1244  N     0.38954   0.97780   0.50000   0.00000  Uiso   1.00
N1245  N     0.38954   0.98892   0.50000   0.00000  Uiso   1.00
N1246  N     0.40712   0.99447   0.50000   0.00000  Uiso   1.00
N1247  N     0.44226   0.97225   0.50000   0.00000  Uiso   1.00
N1248  N     0.42469   0.97780   0.50000   0.00000  Uiso   1.00
N1249  N     0.42469   0.98892   0.50000   0.00000  Uiso   1.00
N1250  N     0.44226   0.99447   0.50000   0.00000  Uiso   1.00
N1251  N     0.47740   0.97225   0.50000   0.00000  Uiso   1.00
N1252  N     0.45983   0.97780   0.50000   0.00000  Uiso   1.00
N1253  N     0.45983   0.98892   0.50000   0.00000  Uiso   1.00
N1254  N     0.47740   0.99447   0.50000   0.00000  Uiso   1.00
N1255  N     0.51254   0.97225   0.50000   0.00000  Uiso   1.00
N1256  N     0.49497   0.97780   0.50000   0.00000  Uiso   1.00
N1257  N     0.49497   0.98892   0.50000   0.00000  Uiso   1.00
N1258  N     0.51254   0.99447   0.50000   0.00000  Uiso   1.00
N1259  N     0.54769   0.97225   0.50000   0.00000  Uiso   1.00
N1260  N     0.53012   0.97780   0.50000   0.00000  Uiso   1.00
N1261  N     0.53012   0.98892   0.50000   0.00000  Uiso   1.00
N1262  N     0.54769   0.99447   0.50000   0.00000  Uiso   1.00
N1263  N     0.58283   0.97225   0.50000   0.00000  Uiso   1.00
N1264  N     0.56526   0.97780   0.50000   0.00000  Uiso   1.00
N1265  N     0.56526   0.98892   0.50000   0.00000  Uiso   1.00
N1266  N     0.58283   0.99447   0.50000   0.00000  Uiso   1.00
N1267  N     0.61797   0.97225   0.50000   0.00000  Uiso   1.00
N1268  N     0.60040   0.97780   0.50000   0.00000  Uiso   1.00
N1269  N     0.60040   0.98892   0.50000   0.00000  Uiso   1.00
N1270  N     0.61797   0.99447   0.50000   0.00000  Uiso   1.00
N1271  N     0.65312   0.97225   0.50000   0.00000  Uiso   1.00
N1272  N     0.63554   0.97780   0.50000   0.00000  Uiso   1.00
N1273  N     0.63554   0.98892   0.50000   0.00000  Uiso   1.00
N1274  N     0.65312   0.99447   0.50000   0.00000  Uiso   1.00
N1275  N     0.68826   0.97225   0.50000   0.00000  Uiso   1.00
N1276  N     0.67069   0.97780   0.50000   0.00000  Uiso   1.00
N1277  N     0.67069   0.98892   0.50000   0.00000  Uiso   1.00
N1278  N     0.68826   0.99447   0.50000   0.00000  Uiso   1.00
N1279  N     0.72340   0.97225   0.50000   0.00000  Uiso   1.00
N1280  N     0.70583   0.97780   0.50000   0.00000  Uiso   1.00
N1281  N     0.70583   0.98892   0.50000   0.00000  Uiso   1.00
N1282  N     0.72340   0.99447   0.50000   0.00000  Uiso   1.00
N1283  N     0.75854   0.97225   0.50000   0.00000  Uiso   1.00
N1284  N     0.74097   0.97780   0.50000   0.00000  Uiso   1.00
N1285  N     0.74097   0.98892   0.50000   0.00000  Uiso   1.00
N1286  N     0.75854   0.99447   0.50000   0.00000  Uiso   1.00
N1287  N     0.79369   0.97225   0.50000   0.00000  Uiso   1.00
N1288  N     0.77612   0.97780   0.50000   0.00000  Uiso   1.00
N1289  N     0.77612   0.98892   0.50000   0.00000  Uiso   1.00
N1290  N     0.79369   0.99447   0.50000   0.00000  Uiso   1.00
N1291  N     0.82883   0.97225   0.50000   0.00000  Uiso   1.00
N1292  N     0.81126   0.97780   0.50000   0.00000  Uiso   1.00
N1293  N     0.81126   0.98892   0.50000   0.00000  Uiso   1.00
N1294  N     0.82883   0.99447   0.50000   0.00000  Uiso   1.00
N1295  N     0.84640   0.97780   0.50000   0.00000  Uiso   1.00
N1296  N     0.84640   0.98892   0.50000   0.00000  Uiso   1.00
H1297  H     0.12944   0.97335   0.50000   0.00000  Uiso   1.00
H1298  H     0.12944   0.99337   0.50000   0.00000  Uiso   1.00
H1299  H     0.86051   0.97335   0.50000   0.00000  Uiso   1.00
H1300  H     0.86051   0.99337   0.50000   0.00000  Uiso   1.00
H1301  H     0.16112   0.17006   0.50000   0.00000  Uiso   1.00
H1302  H     0.19626   0.17006   0.50000   0.00000  Uiso   1.00
H1303  H     0.23140   0.17006   0.50000   0.00000  Uiso   1.00
H1304  H     0.26654   0.17006   0.50000   0.00000  Uiso   1.00
H1305  H     0.30169   0.17006   0.50000   0.00000  Uiso   1.00
H1306  H     0.33683   0.17006   0.50000   0.00000  Uiso   1.00
H1307  H     0.37197   0.17006   0.50000   0.00000  Uiso   1.00
H1308  H     0.61797   0.17006   0.50000   0.00000  Uiso   1.00
H1309  H     0.65312   0.17006   0.50000   0.00000  Uiso   1.00
H1310  H     0.68826   0.17006   0.50000   0.00000  Uiso   1.00
H1311  H     0.72340   0.17006   0.50000   0.00000  Uiso   1.00
H1312  H     0.75854   0.17006   0.50000   0.00000  Uiso   1.00
H1313  H     0.79369   0.17006   0.50000   0.00000  Uiso   1.00
H1314  H     0.82883   0.17006   0.50000   0.00000  Uiso   1.00
H1315  H     0.39301   0.17671   0.50000   0.00000  Uiso   1.00
H1316  H     0.39301   0.19001   0.50000   0.00000  Uiso   1.00
H1317  H     0.59693   0.17671   0.50000   0.00000  Uiso   1.00
H1318  H     0.59693   0.19001   0.50000   0.00000  Uiso   1.00
H1319  H     0.39301   0.21004   0.50000   0.00000  Uiso   1.00
H1320  H     0.39301   0.22335   0.50000   0.00000  Uiso   1.00
H1321  H     0.59693   0.21004   0.50000   0.00000  Uiso   1.00
H1322  H     0.59693   0.22335   0.50000   0.00000  Uiso   1.00
H1323  H     0.39301   0.24337   0.50000   0.00000  Uiso   1.00
H1324  H     0.39301   0.25668   0.50000   0.00000  Uiso   1.00
H1325  H     0.59693   0.24337   0.50000   0.00000  Uiso   1.00
H1326  H     0.59693   0.25668   0.50000   0.00000  Uiso   1.00
H1327  H     0.39301   0.27671   0.50000   0.00000  Uiso   1.00
H1328  H     0.39301   0.29001   0.50000   0.00000  Uiso   1.00
H1329  H     0.59693   0.27671   0.50000   0.00000  Uiso   1.00
H1330  H     0.59693   0.29001   0.50000   0.00000  Uiso   1.00
H1331  H     0.39301   0.31004   0.50000   0.00000  Uiso   1.00
H1332  H     0.39301   0.32335   0.50000   0.00000  Uiso   1.00
H1333  H     0.59693   0.31004   0.50000   0.00000  Uiso   1.00
H1334  H     0.59693   0.32335   0.50000   0.00000  Uiso   1.00
H1335  H     0.39301   0.34337   0.50000   0.00000  Uiso   1.00
H1336  H     0.39301   0.35668   0.50000   0.00000  Uiso   1.00
H1337  H     0.59693   0.34337   0.50000   0.00000  Uiso   1.00
H1338  H     0.59693   0.35668   0.50000   0.00000  Uiso   1.00
H1339  H     0.39301   0.37671   0.50000   0.00000  Uiso   1.00
H1340  H     0.39301   0.39001   0.50000   0.00000  Uiso   1.00
H1341  H     0.59693   0.37671   0.50000   0.00000  Uiso   1.00
H1342  H     0.59693   0.39001   0.50000   0.00000  Uiso   1.00
H1343  H     0.39301   0.41004   0.50000   0.00000  Uiso   1.00
H1344  H     0.39301   0.42335   0.50000   0.00000  Uiso   1.00
H1345  H     0.59693   0.41004   0.50000   0.00000  Uiso   1.00
H1346  H     0.59693   0.42335   0.50000   0.00000  Uiso   1.00
H1347  H     0.39301   0.44337   0.50000   0.00000  Uiso   1.00
H1348  H     0.39301   0.45668   0.50000   0.00000  Uiso   1.00
H1349  H     0.59693   0.44337   0.50000   0.00000  Uiso   1.00
H1350  H     0.59693   0.45668   0.50000   0.00000  Uiso   1.00
H1351  H     0.39301   0.47671   0.50000   0.00000  Uiso   1.00
H1352  H     0.39301   0.49001   0.50000   0.00000  Uiso   1.00
H1353  H     0.59693   0.47671   0.50000   0.00000  Uiso   1.00
H1354  H     0.59693   0.49001   0.50000   0.00000  Uiso   1.00
H1355  H     0.39301   0.51004   0.50000   0.00000  Uiso   1.00
H1356  H     0.39301   0.52335   0.50000   0.00000  Uiso   1.00
H1357  H     0.59693   0.51004   0.50000   0.00000  Uiso   1.00
H1358  H     0.59693   0.52335   0.50000   0.00000  Uiso   1.00
H1359  H     0.39301   0.54337   0.50000   0.00000  Uiso   1.00
H1360  H     0.39301   0.55668   0.50000   0.00000  Uiso   1.00
H1361  H     0.59693   0.54337   0.50000   0.00000  Uiso   1.00
H1362  H     0.59693   0.55668   0.50000   0.00000  Uiso   1.00
H1363  H     0.39301   0.57671   0.50000   0.00000  Uiso   1.00
H1364  H     0.39301   0.59001   0.50000   0.00000  Uiso   1.00
H1365  H     0.59693   0.57671   0.50000   0.00000  Uiso   1.00
H1366  H     0.59693   0.59001   0.50000   0.00000  Uiso   1.00
H1367  H     0.39301   0.61004   0.50000   0.00000  Uiso   1.00
H1368  H     0.39301   0.62335   0.50000   0.00000  Uiso   1.00
H1369  H     0.59693   0.61004   0.50000   0.00000  Uiso   1.00
H1370  H     0.59693   0.62335   0.50000   0.00000  Uiso   1.00
H1371  H     0.39301   0.64337   0.50000   0.00000  Uiso   1.00
H1372  H     0.39301   0.65668   0.50000   0.00000  Uiso   1.00
H1373  H     0.59693   0.64337   0.50000   0.00000  Uiso   1.00
H1374  H     0.59693   0.65668   0.50000   0.00000  Uiso   1.00
H1375  H     0.39301   0.67671   0.50000   0.00000  Uiso   1.00
H1376  H     0.39301   0.69001   0.50000   0.00000  Uiso   1.00
H1377  H     0.59693   0.67671   0.50000   0.00000  Uiso   1.00
H1378  H     0.59693   0.69001   0.50000   0.00000  Uiso   1.00
H1379  H     0.39301   0.71004   0.50000   0.00000  Uiso   1.00
H1380  H     0.39301   0.72335   0.50000   0.00000  Uiso   1.00
H1381  H     0.59693   0.71004   0.50000   0.00000  Uiso   1.00
H1382  H     0.59693   0.72335   0.50000   0.00000  Uiso   1.00
H1383  H     0.39301   0.74337   0.50000   0.00000  Uiso   1.00
H1384  H     0.39301   0.75668   0.50000   0.00000  Uiso   1.00
H1385  H     0.59693   0.74337   0.50000   0.00000  Uiso   1.00
H1386  H     0.59693   0.75668   0.50000   0.00000  Uiso   1.00
H1387  H     0.39301   0.77671   0.50000   0.00000  Uiso   1.00
H1388  H     0.39301   0.79001   0.50000   0.00000  Uiso   1.00
H1389  H     0.59693   0.77671   0.50000   0.00000  Uiso   1.00
H1390  H     0.59693   0.79001   0.50000   0.00000  Uiso   1.00
H1391  H     0.39301   0.81004   0.50000   0.00000  Uiso   1.00
H1392  H     0.39301   0.82335   0.50000   0.00000  Uiso   1.00
H1393  H     0.59693   0.81004   0.50000   0.00000  Uiso   1.00
H1394  H     0.59693   0.82335   0.50000   0.00000  Uiso   1.00
H1395  H     0.16112   0.83000   0.50000   0.00000  Uiso   1.00
H1396  H     0.19626   0.83000   0.50000   0.00000  Uiso   1.00
H1397  H     0.23140   0.83000   0.50000   0.00000  Uiso   1.00
H1398  H     0.26654   0.83000   0.50000   0.00000  Uiso   1.00
H1399  H     0.30169   0.83000   0.50000   0.00000  Uiso   1.00
H1400  H     0.33683   0.83000   0.50000   0.00000  Uiso   1.00
H1401  H     0.37197   0.83000   0.50000   0.00000  Uiso   1.00
H1402  H     0.61797   0.83000   0.50000   0.00000  Uiso   1.00
H1403  H     0.65312   0.83000   0.50000   0.00000  Uiso   1.00
H1404  H     0.68826   0.83000   0.50000   0.00000  Uiso   1.00
H1405  H     0.72340   0.83000   0.50000   0.00000  Uiso   1.00
H1406  H     0.75854   0.83000   0.50000   0.00000  Uiso   1.00
H1407  H     0.79369   0.83000   0.50000   0.00000  Uiso   1.00
H1408  H     0.82883   0.83000   0.50000   0.00000  Uiso   1.00
loop_
_geom_bond_atom_site_label_1
_geom_bond_atom_site_label_2
_geom_bond_distance
_geom_bond_site_symmetry_2
_ccdc_geom_bond_type
N1     N6      1.420   .     A
N1     N2      1.420   .     A
N1     N1218   1.420   1_545 A
N2     N3      1.420   .     A
N2     H83     1.140   .     S
N3     N4      1.420   .     A
N3     H84     1.140   .     S
N4     N7      1.420   .     A
N4     N87     1.420   .     A
N5     N10     1.420   .     A
N5     N6      1.420   .     A
N5     N1222   1.420   1_545 A
N6     N7      1.420   .     A
N7     N8      1.420   .     A
N8     N11     1.420   .     A
N8     N91     1.420   .     A
N9     N14     1.420   .     A
N9     N10     1.420   .     A
N9     N1226   1.420   1_545 A
N10    N11     1.420   .     A
N11    N12     1.420   .     A
N12    N15     1.420   .     A
N12    N95     1.420   .     A
N13    N18     1.420   .     A
N13    N14     1.420   .     A
N13    N1230   1.420   1_545 A
N14    N15     1.420   .     A
N15    N16     1.420   .     A
N16    N19     1.420   .     A
N16    N99     1.420   .     A
N17    N22     1.420   .     A
N17    N18     1.420   .     A
N17    N1234   1.420   1_545 A
N18    N19     1.420   .     A
N19    N20     1.420   .     A
N20    N23     1.420   .     A
N20    N103    1.420   .     A
N21    N26     1.420   .     A
N21    N22     1.420   .     A
N21    N1238   1.420   1_545 A
N22    N23     1.420   .     A
N23    N24     1.420   .     A
N24    N27     1.420   .     A
N24    N107    1.420   .     A
N25    N30     1.420   .     A
N25    N26     1.420   .     A
N25    N1242   1.420   1_545 A
N26    N27     1.420   .     A
N27    N28     1.420   .     A
N28    N31     1.420   .     A
N28    N111    1.420   .     A
N29    N34     1.420   .     A
N29    N30     1.420   .     A
N29    N1246   1.420   1_545 A
N30    N31     1.420   .     A
N31    N32     1.420   .     A
N32    N35     1.420   .     A
N32    N115    1.420   .     A
N33    N38     1.420   .     A
N33    N34     1.420   .     A
N33    N1250   1.420   1_545 A
N34    N35     1.420   .     A
N35    N36     1.420   .     A
N36    N39     1.420   .     A
N36    N119    1.420   .     A
N37    N42     1.420   .     A
N37    N38     1.420   .     A
N37    N1254   1.420   1_545 A
N38    N39     1.420   .     A
N39    N40     1.420   .     A
N40    N43     1.420   .     A
N40    N123    1.420   .     A
N41    N46     1.420   .     A
N41    N42     1.420   .     A
N41    N1258   1.420   1_545 A
N42    N43     1.420   .     A
N43    N44     1.420   .     A
N44    N47     1.420   .     A
N44    N127    1.420   .     A
N45    N50     1.420   .     A
N45    N46     1.420   .     A
N45    N1262   1.420   1_545 A
N46    N47     1.420   .     A
N47    N48     1.420   .     A
N48    N51     1.420   .     A
N48    N131    1.420   .     A
N49    N54     1.420   .     A
N49    N50     1.420   .     A
N49    N1266   1.420   1_545 A
N50    N51     1.420   .     A
N51    N52     1.420   .     A
N52    N55     1.420   .     A
N52    N135    1.420   .     A
N53    N58     1.420   .     A
N53    N54     1.420   .     A
N53    N1270   1.420   1_545 A
N54    N55     1.420   .     A
N55    N56     1.420   .     A
N56    N59     1.420   .     A
N56    N139    1.420   .     A
N57    N62     1.420   .     A
N57    N58     1.420   .     A
N57    N1274   1.420   1_545 A
N58    N59     1.420   .     A
N59    N60     1.420   .     A
N60    N63     1.420   .     A
N60    N143    1.420   .     A
N61    N66     1.420   .     A
N61    N62     1.420   .     A
N61    N1278   1.420   1_545 A
N62    N63     1.420   .     A
N63    N64     1.420   .     A
N64    N67     1.420   .     A
N64    N147    1.420   .     A
N65    N70     1.420   .     A
N65    N66     1.420   .     A
N65    N1282   1.420   1_545 A
N66    N67     1.420   .     A
N67    N68     1.420   .     A
N68    N71     1.420   .     A
N68    N151    1.420   .     A
N69    N74     1.420   .     A
N69    N70     1.420   .     A
N69    N1286   1.420   1_545 A
N70    N71     1.420   .     A
N71    N72     1.420   .     A
N72    N75     1.420   .     A
N72    N155    1.420   .     A
N73    N78     1.420   .     A
N73    N74     1.420   .     A
N73    N1290   1.420   1_545 A
N74    N75     1.420   .     A
N75    N76     1.420   .     A
N76    N79     1.420   .     A
N76    N159    1.420   .     A
N77    N81     1.420   .     A
N77    N78     1.420   .     A
N77    N1294   1.420   1_545 A
N78    N79     1.420   .     A
N79    N80     1.420   .     A
N80    N82     1.420   .     A
N80    N163    1.420   .     A
N81    N82     1.420   .     A
N81    H85     1.140   .     S
N82    H86     1.140   .     S
N87    N92     1.420   .     A
N87    N88     1.420   .     A
N88    N89     1.420   .     A
N88    H169    1.140   .     S
N89    N90     1.420   .     A
N89    H170    1.140   .     S
N90    N93     1.420   .     A
N90    N173    1.420   .     A
N91    N96     1.420   .     A
N91    N92     1.420   .     A
N92    N93     1.420   .     A
N93    N94     1.420   .     A
N94    N97     1.420   .     A
N94    N177    1.420   .     A
N95    N100    1.420   .     A
N95    N96     1.420   .     A
N96    N97     1.420   .     A
N97    N98     1.420   .     A
N98    N101    1.420   .     A
N98    N181    1.420   .     A
N99    N104    1.420   .     A
N99    N100    1.420   .     A
N100   N101    1.420   .     A
N101   N102    1.420   .     A
N102   N105    1.420   .     A
N102   N185    1.420   .     A
N103   N108    1.420   .     A
N103   N104    1.420   .     A
N104   N105    1.420   .     A
N105   N106    1.420   .     A
N106   N109    1.420   .     A
N106   N189    1.420   .     A
N107   N112    1.420   .     A
N107   N108    1.420   .     A
N108   N109    1.420   .     A
N109   N110    1.420   .     A
N110   N113    1.420   .     A
N110   N193    1.420   .     A
N111   N116    1.420   .     A
N111   N112    1.420   .     A
N112   N113    1.420   .     A
N113   N114    1.420   .     A
N114   N117    1.420   .     A
N114   N197    1.420   .     A
N115   N120    1.420   .     A
N115   N116    1.420   .     A
N116   N117    1.420   .     A
N117   N118    1.420   .     A
N118   N121    1.420   .     A
N118   N201    1.420   .     A
N119   N124    1.420   .     A
N119   N120    1.420   .     A
N120   N121    1.420   .     A
N121   N122    1.420   .     A
N122   N125    1.420   .     A
N122   N205    1.420   .     A
N123   N128    1.420   .     A
N123   N124    1.420   .     A
N124   N125    1.420   .     A
N125   N126    1.420   .     A
N126   N129    1.420   .     A
N126   N209    1.420   .     A
N127   N132    1.420   .     A
N127   N128    1.420   .     A
N128   N129    1.420   .     A
N129   N130    1.420   .     A
N130   N133    1.420   .     A
N130   N213    1.420   .     A
N131   N136    1.420   .     A
N131   N132    1.420   .     A
N132   N133    1.420   .     A
N133   N134    1.420   .     A
N134   N137    1.420   .     A
N134   N217    1.420   .     A
N135   N140    1.420   .     A
N135   N136    1.420   .     A
N136   N137    1.420   .     A
N137   N138    1.420   .     A
N138   N141    1.420   .     A
N138   N221    1.420   .     A
N139   N144    1.420   .     A
N139   N140    1.420   .     A
N140   N141    1.420   .     A
N141   N142    1.420   .     A
N142   N145    1.420   .     A
N142   N225    1.420   .     A
N143   N148    1.420   .     A
N143   N144    1.420   .     A
N144   N145    1.420   .     A
N145   N146    1.420   .     A
N146   N149    1.420   .     A
N146   N229    1.420   .     A
N147   N152    1.420   .     A
N147   N148    1.420   .     A
N148   N149    1.420   .     A
N149   N150    1.420   .     A
N150   N153    1.420   .     A
N150   N233    1.420   .     A
N151   N156    1.420   .     A
N151   N152    1.420   .     A
N152   N153    1.420   .     A
N153   N154    1.420   .     A
N154   N157    1.420   .     A
N154   N237    1.420   .     A
N155   N160    1.420   .     A
N155   N156    1.420   .     A
N156   N157    1.420   .     A
N157   N158    1.420   .     A
N158   N161    1.420   .     A
N158   N241    1.420   .     A
N159   N164    1.420   .     A
N159   N160    1.420   .     A
N160   N161    1.420   .     A
N161   N162    1.420   .     A
N162   N165    1.420   .     A
N162   N245    1.420   .     A
N163   N167    1.420   .     A
N163   N164    1.420   .     A
N164   N165    1.420   .     A
N165   N166    1.420   .     A
N166   N168    1.420   .     A
N166   N249    1.420   .     A
N167   N168    1.420   .     A
N167   H171    1.140   .     S
N168   H172    1.140   .     S
N173   N178    1.420   .     A
N173   N174    1.420   .     A
N174   N175    1.420   .     A
N174   H255    1.140   .     S
N175   N176    1.420   .     A
N175   H256    1.140   .     S
N176   N179    1.420   .     A
N176   N259    1.420   .     A
N177   N182    1.420   .     A
N177   N178    1.420   .     A
N178   N179    1.420   .     A
N179   N180    1.420   .     A
N180   N183    1.420   .     A
N180   N263    1.420   .     A
N181   N186    1.420   .     A
N181   N182    1.420   .     A
N182   N183    1.420   .     A
N183   N184    1.420   .     A
N184   N187    1.420   .     A
N184   N267    1.420   .     A
N185   N190    1.420   .     A
N185   N186    1.420   .     A
N186   N187    1.420   .     A
N187   N188    1.420   .     A
N188   N191    1.420   .     A
N188   N271    1.420   .     A
N189   N194    1.420   .     A
N189   N190    1.420   .     A
N190   N191    1.420   .     A
N191   N192    1.420   .     A
N192   N195    1.420   .     A
N192   N275    1.420   .     A
N193   N198    1.420   .     A
N193   N194    1.420   .     A
N194   N195    1.420   .     A
N195   N196    1.420   .     A
N196   N199    1.420   .     A
N196   N279    1.420   .     A
N197   N202    1.420   .     A
N197   N198    1.420   .     A
N198   N199    1.420   .     A
N199   N200    1.420   .     A
N200   N203    1.420   .     A
N200   N283    1.420   .     A
N201   N206    1.420   .     A
N201   N202    1.420   .     A
N202   N203    1.420   .     A
N203   N204    1.420   .     A
N204   N207    1.420   .     A
N204   N287    1.420   .     A
N205   N210    1.420   .     A
N205   N206    1.420   .     A
N206   N207    1.420   .     A
N207   N208    1.420   .     A
N208   N211    1.420   .     A
N208   N291    1.420   .     A
N209   N214    1.420   .     A
N209   N210    1.420   .     A
N210   N211    1.420   .     A
N211   N212    1.420   .     A
N212   N215    1.420   .     A
N212   N295    1.420   .     A
N213   N218    1.420   .     A
N213   N214    1.420   .     A
N214   N215    1.420   .     A
N215   N216    1.420   .     A
N216   N219    1.420   .     A
N216   N299    1.420   .     A
N217   N222    1.420   .     A
N217   N218    1.420   .     A
N218   N219    1.420   .     A
N219   N220    1.420   .     A
N220   N223    1.420   .     A
N220   N303    1.420   .     A
N221   N226    1.420   .     A
N221   N222    1.420   .     A
N222   N223    1.420   .     A
N223   N224    1.420   .     A
N224   N227    1.420   .     A
N224   N307    1.420   .     A
N225   N230    1.420   .     A
N225   N226    1.420   .     A
N226   N227    1.420   .     A
N227   N228    1.420   .     A
N228   N231    1.420   .     A
N228   N311    1.420   .     A
N229   N234    1.420   .     A
N229   N230    1.420   .     A
N230   N231    1.420   .     A
N231   N232    1.420   .     A
N232   N235    1.420   .     A
N232   N315    1.420   .     A
N233   N238    1.420   .     A
N233   N234    1.420   .     A
N234   N235    1.420   .     A
N235   N236    1.420   .     A
N236   N239    1.420   .     A
N236   N319    1.420   .     A
N237   N242    1.420   .     A
N237   N238    1.420   .     A
N238   N239    1.420   .     A
N239   N240    1.420   .     A
N240   N243    1.420   .     A
N240   N323    1.420   .     A
N241   N246    1.420   .     A
N241   N242    1.420   .     A
N242   N243    1.420   .     A
N243   N244    1.420   .     A
N244   N247    1.420   .     A
N244   N327    1.420   .     A
N245   N250    1.420   .     A
N245   N246    1.420   .     A
N246   N247    1.420   .     A
N247   N248    1.420   .     A
N248   N251    1.420   .     A
N248   N331    1.420   .     A
N249   N253    1.420   .     A
N249   N250    1.420   .     A
N250   N251    1.420   .     A
N251   N252    1.420   .     A
N252   N254    1.420   .     A
N252   N335    1.420   .     A
N253   N254    1.420   .     A
N253   H257    1.140   .     S
N254   H258    1.140   .     S
N259   N264    1.420   .     A
N259   N260    1.420   .     A
N260   N261    1.420   .     A
N260   H341    1.140   .     S
N261   N262    1.420   .     A
N261   H342    1.140   .     S
N262   N265    1.420   .     A
N262   N345    1.420   .     A
N263   N268    1.420   .     A
N263   N264    1.420   .     A
N264   N265    1.420   .     A
N265   N266    1.420   .     A
N266   N269    1.420   .     A
N266   N349    1.420   .     A
N267   N272    1.420   .     A
N267   N268    1.420   .     A
N268   N269    1.420   .     A
N269   N270    1.420   .     A
N270   N273    1.420   .     A
N270   N353    1.420   .     A
N271   N276    1.420   .     A
N271   N272    1.420   .     A
N272   N273    1.420   .     A
N273   N274    1.420   .     A
N274   N277    1.420   .     A
N274   N357    1.420   .     A
N275   N280    1.420   .     A
N275   N276    1.420   .     A
N276   N277    1.420   .     A
N277   N278    1.420   .     A
N278   N281    1.420   .     A
N278   N361    1.420   .     A
N279   N284    1.420   .     A
N279   N280    1.420   .     A
N280   N281    1.420   .     A
N281   N282    1.420   .     A
N282   N285    1.420   .     A
N282   N365    1.420   .     A
N283   N288    1.420   .     A
N283   N284    1.420   .     A
N284   N285    1.420   .     A
N285   N286    1.420   .     A
N286   N289    1.420   .     A
N286   N369    1.420   .     A
N287   N292    1.420   .     A
N287   N288    1.420   .     A
N288   N289    1.420   .     A
N289   N290    1.420   .     A
N290   N293    1.420   .     A
N290   N373    1.420   .     A
N291   N296    1.420   .     A
N291   N292    1.420   .     A
N292   N293    1.420   .     A
N293   N294    1.420   .     A
N294   N297    1.420   .     A
N294   N377    1.420   .     A
N295   N300    1.420   .     A
N295   N296    1.420   .     A
N296   N297    1.420   .     A
N297   N298    1.420   .     A
N298   N301    1.420   .     A
N298   N381    1.420   .     A
N299   N304    1.420   .     A
N299   N300    1.420   .     A
N300   N301    1.420   .     A
N301   N302    1.420   .     A
N302   N305    1.420   .     A
N302   N385    1.420   .     A
N303   N308    1.420   .     A
N303   N304    1.420   .     A
N304   N305    1.420   .     A
N305   N306    1.420   .     A
N306   N309    1.420   .     A
N306   N389    1.420   .     A
N307   N312    1.420   .     A
N307   N308    1.420   .     A
N308   N309    1.420   .     A
N309   N310    1.420   .     A
N310   N313    1.420   .     A
N310   N393    1.420   .     A
N311   N316    1.420   .     A
N311   N312    1.420   .     A
N312   N313    1.420   .     A
N313   N314    1.420   .     A
N314   N317    1.420   .     A
N314   N397    1.420   .     A
N315   N320    1.420   .     A
N315   N316    1.420   .     A
N316   N317    1.420   .     A
N317   N318    1.420   .     A
N318   N321    1.420   .     A
N318   N401    1.420   .     A
N319   N324    1.420   .     A
N319   N320    1.420   .     A
N320   N321    1.420   .     A
N321   N322    1.420   .     A
N322   N325    1.420   .     A
N322   N405    1.420   .     A
N323   N328    1.420   .     A
N323   N324    1.420   .     A
N324   N325    1.420   .     A
N325   N326    1.420   .     A
N326   N329    1.420   .     A
N326   N409    1.420   .     A
N327   N332    1.420   .     A
N327   N328    1.420   .     A
N328   N329    1.420   .     A
N329   N330    1.420   .     A
N330   N333    1.420   .     A
N330   N413    1.420   .     A
N331   N336    1.420   .     A
N331   N332    1.420   .     A
N332   N333    1.420   .     A
N333   N334    1.420   .     A
N334   N337    1.420   .     A
N334   N417    1.420   .     A
N335   N339    1.420   .     A
N335   N336    1.420   .     A
N336   N337    1.420   .     A
N337   N338    1.420   .     A
N338   N340    1.420   .     A
N338   N421    1.420   .     A
N339   N340    1.420   .     A
N339   H343    1.140   .     S
N340   H344    1.140   .     S
N345   N350    1.420   .     A
N345   N346    1.420   .     A
N346   N347    1.420   .     A
N346   H427    1.140   .     S
N347   N348    1.420   .     A
N347   H428    1.140   .     S
N348   N351    1.420   .     A
N348   H1301   1.140   .     S
N349   N354    1.420   .     A
N349   N350    1.420   .     A
N350   N351    1.420   .     A
N351   N352    1.420   .     A
N352   N355    1.420   .     A
N352   H1302   1.140   .     S
N353   N358    1.420   .     A
N353   N354    1.420   .     A
N354   N355    1.420   .     A
N355   N356    1.420   .     A
N356   N359    1.420   .     A
N356   H1303   1.140   .     S
N357   N362    1.420   .     A
N357   N358    1.420   .     A
N358   N359    1.420   .     A
N359   N360    1.420   .     A
N360   N363    1.420   .     A
N360   H1304   1.140   .     S
N361   N366    1.420   .     A
N361   N362    1.420   .     A
N362   N363    1.420   .     A
N363   N364    1.420   .     A
N364   N367    1.420   .     A
N364   H1305   1.140   .     S
N365   N370    1.420   .     A
N365   N366    1.420   .     A
N366   N367    1.420   .     A
N367   N368    1.420   .     A
N368   N371    1.420   .     A
N368   H1306   1.140   .     S
N369   N374    1.420   .     A
N369   N370    1.420   .     A
N370   N371    1.420   .     A
N371   N372    1.420   .     A
N372   N375    1.420   .     A
N372   H1307   1.140   .     S
N373   N378    1.420   .     A
N373   N374    1.420   .     A
N374   N375    1.420   .     A
N375   N376    1.420   .     A
N376   N379    1.420   .     A
N376   C431    1.420   .     A
N377   N382    1.420   .     A
N377   N378    1.420   .     A
N378   N379    1.420   .     A
N379   N380    1.420   .     A
N380   N383    1.420   .     A
N380   C433    1.420   .     A
N381   N386    1.420   .     A
N381   N382    1.420   .     A
N382   N383    1.420   .     A
N383   N384    1.420   .     A
N384   N387    1.420   .     A
N384   C437    1.420   .     A
N385   N390    1.420   .     A
N385   N386    1.420   .     A
N386   N387    1.420   .     A
N387   N388    1.420   .     A
N388   N391    1.420   .     A
N388   C441    1.420   .     A
N389   N394    1.420   .     A
N389   N390    1.420   .     A
N390   N391    1.420   .     A
N391   N392    1.420   .     A
N392   N395    1.420   .     A
N392   C445    1.420   .     A
N393   N398    1.420   .     A
N393   N394    1.420   .     A
N394   N395    1.420   .     A
N395   N396    1.420   .     A
N396   N399    1.420   .     A
N396   C449    1.420   .     A
N397   N402    1.420   .     A
N397   N398    1.420   .     A
N398   N399    1.420   .     A
N399   N400    1.420   .     A
N400   N403    1.420   .     A
N400   H1308   1.140   .     S
N401   N406    1.420   .     A
N401   N402    1.420   .     A
N402   N403    1.420   .     A
N403   N404    1.420   .     A
N404   N407    1.420   .     A
N404   H1309   1.140   .     S
N405   N410    1.420   .     A
N405   N406    1.420   .     A
N406   N407    1.420   .     A
N407   N408    1.420   .     A
N408   N411    1.420   .     A
N408   H1310   1.140   .     S
N409   N414    1.420   .     A
N409   N410    1.420   .     A
N410   N411    1.420   .     A
N411   N412    1.420   .     A
N412   N415    1.420   .     A
N412   H1311   1.140   .     S
N413   N418    1.420   .     A
N413   N414    1.420   .     A
N414   N415    1.420   .     A
N415   N416    1.420   .     A
N416   N419    1.420   .     A
N416   H1312   1.140   .     S
N417   N422    1.420   .     A
N417   N418    1.420   .     A
N418   N419    1.420   .     A
N419   N420    1.420   .     A
N420   N423    1.420   .     A
N420   H1313   1.140   .     S
N421   N425    1.420   .     A
N421   N422    1.420   .     A
N422   N423    1.420   .     A
N423   N424    1.420   .     A
N424   N426    1.420   .     A
N424   H1314   1.140   .     S
N425   N426    1.420   .     A
N425   H429    1.140   .     S
N426   H430    1.140   .     S
C431   C434    1.420   .     A
C431   H1315   1.140   .     S
C432   C435    1.420   .     A
C432   C453    1.420   .     A
C432   H1316   1.140   .     S
C433   C438    1.420   .     A
C433   C434    1.420   .     A
C434   C435    1.420   .     A
C435   C436    1.420   .     A
C436   C439    1.420   .     A
C436   C455    1.420   .     A
C437   C442    1.420   .     A
C437   C438    1.420   .     A
C438   C439    1.420   .     A
C439   C440    1.420   .     A
C440   C443    1.420   .     A
C440   C459    1.420   .     A
C441   C446    1.420   .     A
C441   C442    1.420   .     A
C442   C443    1.420   .     A
C443   C444    1.420   .     A
C444   C447    1.420   .     A
C444   C463    1.420   .     A
C445   C450    1.420   .     A
C445   C446    1.420   .     A
C446   C447    1.420   .     A
C447   C448    1.420   .     A
C448   C451    1.420   .     A
C448   C467    1.420   .     A
C449   C450    1.420   .     A
C449   H1317   1.140   .     S
C450   C451    1.420   .     A
C451   C452    1.420   .     A
C452   C471    1.420   .     A
C452   H1318   1.140   .     S
C453   C456    1.420   .     A
C453   H1319   1.140   .     S
C454   C457    1.420   .     A
C454   C475    1.420   .     A
C454   H1320   1.140   .     S
C455   C460    1.420   .     A
C455   C456    1.420   .     A
C456   C457    1.420   .     A
C457   C458    1.420   .     A
C458   C461    1.420   .     A
C458   C477    1.420   .     A
C459   C464    1.420   .     A
C459   C460    1.420   .     A
C460   C461    1.420   .     A
C461   C462    1.420   .     A
C462   C465    1.420   .     A
C462   C481    1.420   .     A
C463   C468    1.420   .     A
C463   C464    1.420   .     A
C464   C465    1.420   .     A
C465   C466    1.420   .     A
C466   C469    1.420   .     A
C466   C485    1.420   .     A
C467   C472    1.420   .     A
C467   C468    1.420   .     A
C468   C469    1.420   .     A
C469   C470    1.420   .     A
C470   C473    1.420   .     A
C470   C489    1.420   .     A
C471   C472    1.420   .     A
C471   H1321   1.140   .     S
C472   C473    1.420   .     A
C473   C474    1.420   .     A
C474   C493    1.420   .     A
C474   H1322   1.140   .     S
C475   C478    1.420   .     A
C475   H1323   1.140   .     S
C476   C479    1.420   .     A
C476   C497    1.420   .     A
C476   H1324   1.140   .     S
C477   C482    1.420   .     A
C477   C478    1.420   .     A
C478   C479    1.420   .     A
C479   C480    1.420   .     A
C480   C483    1.420   .     A
C480   C499    1.420   .     A
C481   C486    1.420   .     A
C481   C482    1.420   .     A
C482   C483    1.420   .     A
C483   C484    1.420   .     A
C484   C487    1.420   .     A
C484   C503    1.420   .     A
C485   C490    1.420   .     A
C485   C486    1.420   .     A
C486   C487    1.420   .     A
C487   C488    1.420   .     A
C488   C491    1.420   .     A
C488   C507    1.420   .     A
C489   C494    1.420   .     A
C489   C490    1.420   .     A
C490   C491    1.420   .     A
C491   C492    1.420   .     A
C492   C495    1.420   .     A
C492   C511    1.420   .     A
C493   C494    1.420   .     A
C493   H1325   1.140   .     S
C494   C495    1.420   .     A
C495   C496    1.420   .     A
C496   C515    1.420   .     A
C496   H1326   1.140   .     S
C497   C500    1.420   .     A
C497   H1327   1.140   .     S
C498   C501    1.420   .     A
C498   C519    1.420   .     A
C498   H1328   1.140   .     S
C499   C504    1.420   .     A
C499   C500    1.420   .     A
C500   C501    1.420   .     A
C501   C502    1.420   .     A
C502   C505    1.420   .     A
C502   C521    1.420   .     A
C503   C508    1.420   .     A
C503   C504    1.420   .     A
C504   C505    1.420   .     A
C505   C506    1.420   .     A
C506   C509    1.420   .     A
C506   C525    1.420   .     A
C507   C512    1.420   .     A
C507   C508    1.420   .     A
C508   C509    1.420   .     A
C509   C510    1.420   .     A
C510   C513    1.420   .     A
C510   C529    1.420   .     A
C511   C516    1.420   .     A
C511   C512    1.420   .     A
C512   C513    1.420   .     A
C513   C514    1.420   .     A
C514   C517    1.420   .     A
C514   C533    1.420   .     A
C515   C516    1.420   .     A
C515   H1329   1.140   .     S
C516   C517    1.420   .     A
C517   C518    1.420   .     A
C518   C537    1.420   .     A
C518   H1330   1.140   .     S
C519   C522    1.420   .     A
C519   H1331   1.140   .     S
C520   C523    1.420   .     A
C520   C541    1.420   .     A
C520   H1332   1.140   .     S
C521   C526    1.420   .     A
C521   C522    1.420   .     A
C522   C523    1.420   .     A
C523   C524    1.420   .     A
C524   C527    1.420   .     A
C524   C543    1.420   .     A
C525   C530    1.420   .     A
C525   C526    1.420   .     A
C526   C527    1.420   .     A
C527   C528    1.420   .     A
C528   C531    1.420   .     A
C528   C547    1.420   .     A
C529   C534    1.420   .     A
C529   C530    1.420   .     A
C530   C531    1.420   .     A
C531   C532    1.420   .     A
C532   C535    1.420   .     A
C532   C551    1.420   .     A
C533   C538    1.420   .     A
C533   C534    1.420   .     A
C534   C535    1.420   .     A
C535   C536    1.420   .     A
C536   C539    1.420   .     A
C536   C555    1.420   .     A
C537   C538    1.420   .     A
C537   H1333   1.140   .     S
C538   C539    1.420   .     A
C539   C540    1.420   .     A
C540   C559    1.420   .     A
C540   H1334   1.140   .     S
C541   C544    1.420   .     A
C541   H1335   1.140   .     S
C542   C545    1.420   .     A
C542   C563    1.420   .     A
C542   H1336   1.140   .     S
C543   C548    1.420   .     A
C543   C544    1.420   .     A
C544   C545    1.420   .     A
C545   C546    1.420   .     A
C546   C549    1.420   .     A
C546   C565    1.420   .     A
C547   C552    1.420   .     A
C547   C548    1.420   .     A
C548   C549    1.420   .     A
C549   C550    1.420   .     A
C550   C553    1.420   .     A
C550   C569    1.420   .     A
C551   C556    1.420   .     A
C551   C552    1.420   .     A
C552   C553    1.420   .     A
C553   C554    1.420   .     A
C554   C557    1.420   .     A
C554   C573    1.420   .     A
C555   C560    1.420   .     A
C555   C556    1.420   .     A
C556   C557    1.420   .     A
C557   C558    1.420   .     A
C558   C561    1.420   .     A
C558   C577    1.420   .     A
C559   C560    1.420   .     A
C559   H1337   1.140   .     S
C560   C561    1.420   .     A
C561   C562    1.420   .     A
C562   C581    1.420   .     A
C562   H1338   1.140   .     S
C563   C566    1.420   .     A
C563   H1339   1.140   .     S
C564   C567    1.420   .     A
C564   C585    1.420   .     A
C564   H1340   1.140   .     S
C565   C570    1.420   .     A
C565   C566    1.420   .     A
C566   C567    1.420   .     A
C567   C568    1.420   .     A
C568   C571    1.420   .     A
C568   C587    1.420   .     A
C569   C574    1.420   .     A
C569   C570    1.420   .     A
C570   C571    1.420   .     A
C571   C572    1.420   .     A
C572   C575    1.420   .     A
C572   C591    1.420   .     A
C573   C578    1.420   .     A
C573   C574    1.420   .     A
C574   C575    1.420   .     A
C575   C576    1.420   .     A
C576   C579    1.420   .     A
C576   C595    1.420   .     A
C577   C582    1.420   .     A
C577   C578    1.420   .     A
C578   C579    1.420   .     A
C579   C580    1.420   .     A
C580   C583    1.420   .     A
C580   C599    1.420   .     A
C581   C582    1.420   .     A
C581   H1341   1.140   .     S
C582   C583    1.420   .     A
C583   C584    1.420   .     A
C584   C603    1.420   .     A
C584   H1342   1.140   .     S
C585   C588    1.420   .     A
C585   H1343   1.140   .     S
C586   C589    1.420   .     A
C586   C607    1.420   .     A
C586   H1344   1.140   .     S
C587   C592    1.420   .     A
C587   C588    1.420   .     A
C588   C589    1.420   .     A
C589   C590    1.420   .     A
C590   C593    1.420   .     A
C590   C609    1.420   .     A
C591   C596    1.420   .     A
C591   C592    1.420   .     A
C592   C593    1.420   .     A
C593   C594    1.420   .     A
C594   C597    1.420   .     A
C594   C613    1.420   .     A
C595   C600    1.420   .     A
C595   C596    1.420   .     A
C596   C597    1.420   .     A
C597   C598    1.420   .     A
C598   C601    1.420   .     A
C598   C617    1.420   .     A
C599   C604    1.420   .     A
C599   C600    1.420   .     A
C600   C601    1.420   .     A
C601   C602    1.420   .     A
C602   C605    1.420   .     A
C602   C621    1.420   .     A
C603   C604    1.420   .     A
C603   H1345   1.140   .     S
C604   C605    1.420   .     A
C605   C606    1.420   .     A
C606   C625    1.420   .     A
C606   H1346   1.140   .     S
C607   C610    1.420   .     A
C607   H1347   1.140   .     S
C608   C611    1.420   .     A
C608   C629    1.420   .     A
C608   H1348   1.140   .     S
C609   C614    1.420   .     A
C609   C610    1.420   .     A
C610   C611    1.420   .     A
C611   C612    1.420   .     A
C612   C615    1.420   .     A
C612   C631    1.420   .     A
C613   C618    1.420   .     A
C613   C614    1.420   .     A
C614   C615    1.420   .     A
C615   C616    1.420   .     A
C616   C619    1.420   .     A
C616   C635    1.420   .     A
C617   C622    1.420   .     A
C617   C618    1.420   .     A
C618   C619    1.420   .     A
C619   C620    1.420   .     A
C620   C623    1.420   .     A
C620   C639    1.420   .     A
C621   C626    1.420   .     A
C621   C622    1.420   .     A
C622   C623    1.420   .     A
C623   C624    1.420   .     A
C624   C627    1.420   .     A
C624   C643    1.420   .     A
C625   C626    1.420   .     A
C625   H1349   1.140   .     S
C626   C627    1.420   .     A
C627   C628    1.420   .     A
C628   C647    1.420   .     A
C628   H1350   1.140   .     S
C629   C632    1.420   .     A
C629   H1351   1.140   .     S
C630   C633    1.420   .     A
C630   C651    1.420   .     A
C630   H1352   1.140   .     S
C631   C636    1.420   .     A
C631   C632    1.420   .     A
C632   C633    1.420   .     A
C633   C634    1.420   .     A
C634   C637    1.420   .     A
C634   C653    1.420   .     A
C635   C640    1.420   .     A
C635   C636    1.420   .     A
C636   C637    1.420   .     A
C637   C638    1.420   .     A
C638   C641    1.420   .     A
C638   C657    1.420   .     A
C639   C644    1.420   .     A
C639   C640    1.420   .     A
C640   C641    1.420   .     A
C641   C642    1.420   .     A
C642   C645    1.420   .     A
C642   C661    1.420   .     A
C643   C648    1.420   .     A
C643   C644    1.420   .     A
C644   C645    1.420   .     A
C645   C646    1.420   .     A
C646   C649    1.420   .     A
C646   C665    1.420   .     A
C647   C648    1.420   .     A
C647   H1353   1.140   .     S
C648   C649    1.420   .     A
C649   C650    1.420   .     A
C650   C669    1.420   .     A
C650   H1354   1.140   .     S
C651   C654    1.420   .     A
C651   H1355   1.140   .     S
C652   C655    1.420   .     A
C652   C673    1.420   .     A
C652   H1356   1.140   .     S
C653   C658    1.420   .     A
C653   C654    1.420   .     A
C654   C655    1.420   .     A
C655   C656    1.420   .     A
C656   C659    1.420   .     A
C656   C675    1.420   .     A
C657   C662    1.420   .     A
C657   C658    1.420   .     A
C658   C659    1.420   .     A
C659   C660    1.420   .     A
C660   C663    1.420   .     A
C660   C679    1.420   .     A
C661   C666    1.420   .     A
C661   C662    1.420   .     A
C662   C663    1.420   .     A
C663   C664    1.420   .     A
C664   C667    1.420   .     A
C664   C683    1.420   .     A
C665   C670    1.420   .     A
C665   C666    1.420   .     A
C666   C667    1.420   .     A
C667   C668    1.420   .     A
C668   C671    1.420   .     A
C668   C687    1.420   .     A
C669   C670    1.420   .     A
C669   H1357   1.140   .     S
C670   C671    1.420   .     A
C671   C672    1.420   .     A
C672   C691    1.420   .     A
C672   H1358   1.140   .     S
C673   C676    1.420   .     A
C673   H1359   1.140   .     S
C674   C677    1.420   .     A
C674   C695    1.420   .     A
C674   H1360   1.140   .     S
C675   C680    1.420   .     A
C675   C676    1.420   .     A
C676   C677    1.420   .     A
C677   C678    1.420   .     A
C678   C681    1.420   .     A
C678   C697    1.420   .     A
C679   C684    1.420   .     A
C679   C680    1.420   .     A
C680   C681    1.420   .     A
C681   C682    1.420   .     A
C682   C685    1.420   .     A
C682   C701    1.420   .     A
C683   C688    1.420   .     A
C683   C684    1.420   .     A
C684   C685    1.420   .     A
C685   C686    1.420   .     A
C686   C689    1.420   .     A
C686   C705    1.420   .     A
C687   C692    1.420   .     A
C687   C688    1.420   .     A
C688   C689    1.420   .     A
C689   C690    1.420   .     A
C690   C693    1.420   .     A
C690   C709    1.420   .     A
C691   C692    1.420   .     A
C691   H1361   1.140   .     S
C692   C693    1.420   .     A
C693   C694    1.420   .     A
C694   C713    1.420   .     A
C694   H1362   1.140   .     S
C695   C698    1.420   .     A
C695   H1363   1.140   .     S
C696   C699    1.420   .     A
C696   C717    1.420   .     A
C696   H1364   1.140   .     S
C697   C702    1.420   .     A
C697   C698    1.420   .     A
C698   C699    1.420   .     A
C699   C700    1.420   .     A
C700   C703    1.420   .     A
C700   C719    1.420   .     A
C701   C706    1.420   .     A
C701   C702    1.420   .     A
C702   C703    1.420   .     A
C703   C704    1.420   .     A
C704   C707    1.420   .     A
C704   C723    1.420   .     A
C705   C710    1.420   .     A
C705   C706    1.420   .     A
C706   C707    1.420   .     A
C707   C708    1.420   .     A
C708   C711    1.420   .     A
C708   C727    1.420   .     A
C709   C714    1.420   .     A
C709   C710    1.420   .     A
C710   C711    1.420   .     A
C711   C712    1.420   .     A
C712   C715    1.420   .     A
C712   C731    1.420   .     A
C713   C714    1.420   .     A
C713   H1365   1.140   .     S
C714   C715    1.420   .     A
C715   C716    1.420   .     A
C716   C735    1.420   .     A
C716   H1366   1.140   .     S
C717   C720    1.420   .     A
C717   H1367   1.140   .     S
C718   C721    1.420   .     A
C718   C739    1.420   .     A
C718   H1368   1.140   .     S
C719   C724    1.420   .     A
C719   C720    1.420   .     A
C720   C721    1.420   .     A
C721   C722    1.420   .     A
C722   C725    1.420   .     A
C722   C741    1.420   .     A
C723   C728    1.420   .     A
C723   C724    1.420   .     A
C724   C725    1.420   .     A
C725   C726    1.420   .     A
C726   C729    1.420   .     A
C726   C745    1.420   .     A
C727   C732    1.420   .     A
C727   C728    1.420   .     A
C728   C729    1.420   .     A
C729   C730    1.420   .     A
C730   C733    1.420   .     A
C730   C749    1.420   .     A
C731   C736    1.420   .     A
C731   C732    1.420   .     A
C732   C733    1.420   .     A
C733   C734    1.420   .     A
C734   C737    1.420   .     A
C734   C753    1.420   .     A
C735   C736    1.420   .     A
C735   H1369   1.140   .     S
C736   C737    1.420   .     A
C737   C738    1.420   .     A
C738   C757    1.420   .     A
C738   H1370   1.140   .     S
C739   C742    1.420   .     A
C739   H1371   1.140   .     S
C740   C743    1.420   .     A
C740   C761    1.420   .     A
C740   H1372   1.140   .     S
C741   C746    1.420   .     A
C741   C742    1.420   .     A
C742   C743    1.420   .     A
C743   C744    1.420   .     A
C744   C747    1.420   .     A
C744   C763    1.420   .     A
C745   C750    1.420   .     A
C745   C746    1.420   .     A
C746   C747    1.420   .     A
C747   C748    1.420   .     A
C748   C751    1.420   .     A
C748   C767    1.420   .     A
C749   C754    1.420   .     A
C749   C750    1.420   .     A
C750   C751    1.420   .     A
C751   C752    1.420   .     A
C752   C755    1.420   .     A
C752   C771    1.420   .     A
C753   C758    1.420   .     A
C753   C754    1.420   .     A
C754   C755    1.420   .     A
C755   C756    1.420   .     A
C756   C759    1.420   .     A
C756   C775    1.420   .     A
C757   C758    1.420   .     A
C757   H1373   1.140   .     S
C758   C759    1.420   .     A
C759   C760    1.420   .     A
C760   C779    1.420   .     A
C760   H1374   1.140   .     S
C761   C764    1.420   .     A
C761   H1375   1.140   .     S
C762   C765    1.420   .     A
C762   C783    1.420   .     A
C762   H1376   1.140   .     S
C763   C768    1.420   .     A
C763   C764    1.420   .     A
C764   C765    1.420   .     A
C765   C766    1.420   .     A
C766   C769    1.420   .     A
C766   C785    1.420   .     A
C767   C772    1.420   .     A
C767   C768    1.420   .     A
C768   C769    1.420   .     A
C769   C770    1.420   .     A
C770   C773    1.420   .     A
C770   C789    1.420   .     A
C771   C776    1.420   .     A
C771   C772    1.420   .     A
C772   C773    1.420   .     A
C773   C774    1.420   .     A
C774   C777    1.420   .     A
C774   C793    1.420   .     A
C775   C780    1.420   .     A
C775   C776    1.420   .     A
C776   C777    1.420   .     A
C777   C778    1.420   .     A
C778   C781    1.420   .     A
C778   C797    1.420   .     A
C779   C780    1.420   .     A
C779   H1377   1.140   .     S
C780   C781    1.420   .     A
C781   C782    1.420   .     A
C782   C801    1.420   .     A
C782   H1378   1.140   .     S
C783   C786    1.420   .     A
C783   H1379   1.140   .     S
C784   C787    1.420   .     A
C784   C805    1.420   .     A
C784   H1380   1.140   .     S
C785   C790    1.420   .     A
C785   C786    1.420   .     A
C786   C787    1.420   .     A
C787   C788    1.420   .     A
C788   C791    1.420   .     A
C788   C807    1.420   .     A
C789   C794    1.420   .     A
C789   C790    1.420   .     A
C790   C791    1.420   .     A
C791   C792    1.420   .     A
C792   C795    1.420   .     A
C792   C811    1.420   .     A
C793   C798    1.420   .     A
C793   C794    1.420   .     A
C794   C795    1.420   .     A
C795   C796    1.420   .     A
C796   C799    1.420   .     A
C796   C815    1.420   .     A
C797   C802    1.420   .     A
C797   C798    1.420   .     A
C798   C799    1.420   .     A
C799   C800    1.420   .     A
C800   C803    1.420   .     A
C800   C819    1.420   .     A
C801   C802    1.420   .     A
C801   H1381   1.140   .     S
C802   C803    1.420   .     A
C803   C804    1.420   .     A
C804   C823    1.420   .     A
C804   H1382   1.140   .     S
C805   C808    1.420   .     A
C805   H1383   1.140   .     S
C806   C809    1.420   .     A
C806   C827    1.420   .     A
C806   H1384   1.140   .     S
C807   C812    1.420   .     A
C807   C808    1.420   .     A
C808   C809    1.420   .     A
C809   C810    1.420   .     A
C810   C813    1.420   .     A
C810   C829    1.420   .     A
C811   C816    1.420   .     A
C811   C812    1.420   .     A
C812   C813    1.420   .     A
C813   C814    1.420   .     A
C814   C817    1.420   .     A
C814   C833    1.420   .     A
C815   C820    1.420   .     A
C815   C816    1.420   .     A
C816   C817    1.420   .     A
C817   C818    1.420   .     A
C818   C821    1.420   .     A
C818   C837    1.420   .     A
C819   C824    1.420   .     A
C819   C820    1.420   .     A
C820   C821    1.420   .     A
C821   C822    1.420   .     A
C822   C825    1.420   .     A
C822   C841    1.420   .     A
C823   C824    1.420   .     A
C823   H1385   1.140   .     S
C824   C825    1.420   .     A
C825   C826    1.420   .     A
C826   C845    1.420   .     A
C826   H1386   1.140   .     S
C827   C830    1.420   .     A
C827   H1387   1.140   .     S
C828   C831    1.420   .     A
C828   C849    1.420   .     A
C828   H1388   1.140   .     S
C829   C834    1.420   .     A
C829   C830    1.420   .     A
C830   C831    1.420   .     A
C831   C832    1.420   .     A
C832   C835    1.420   .     A
C832   C851    1.420   .     A
C833   C838    1.420   .     A
C833   C834    1.420   .     A
C834   C835    1.420   .     A
C835   C836    1.420   .     A
C836   C839    1.420   .     A
C836   C855    1.420   .     A
C837   C842    1.420   .     A
C837   C838    1.420   .     A
C838   C839    1.420   .     A
C839   C840    1.420   .     A
C840   C843    1.420   .     A
C840   C859    1.420   .     A
C841   C846    1.420   .     A
C841   C842    1.420   .     A
C842   C843    1.420   .     A
C843   C844    1.420   .     A
C844   C847    1.420   .     A
C844   C863    1.420   .     A
C845   C846    1.420   .     A
C845   H1389   1.140   .     S
C846   C847    1.420   .     A
C847   C848    1.420   .     A
C848   C867    1.420   .     A
C848   H1390   1.140   .     S
C849   C852    1.420   .     A
C849   H1391   1.140   .     S
C850   C853    1.420   .     A
C850   N899    1.420   .     A
C850   H1392   1.140   .     S
C851   C856    1.420   .     A
C851   C852    1.420   .     A
C852   C853    1.420   .     A
C853   C854    1.420   .     A
C854   C857    1.420   .     A
C854   N903    1.420   .     A
C855   C860    1.420   .     A
C855   C856    1.420   .     A
C856   C857    1.420   .     A
C857   C858    1.420   .     A
C858   C861    1.420   .     A
C858   N907    1.420   .     A
C859   C864    1.420   .     A
C859   C860    1.420   .     A
C860   C861    1.420   .     A
C861   C862    1.420   .     A
C862   C865    1.420   .     A
C862   N911    1.420   .     A
C863   C868    1.420   .     A
C863   C864    1.420   .     A
C864   C865    1.420   .     A
C865   C866    1.420   .     A
C866   C869    1.420   .     A
C866   N915    1.420   .     A
C867   C868    1.420   .     A
C867   H1393   1.140   .     S
C868   C869    1.420   .     A
C869   C870    1.420   .     A
C870   N919    1.420   .     A
C870   H1394   1.140   .     S
N871   N876    1.420   .     A
N871   N872    1.420   .     A
N871   H1395   1.140   .     S
N872   N873    1.420   .     A
N872   H953    1.140   .     S
N873   N874    1.420   .     A
N873   H954    1.140   .     S
N874   N877    1.420   .     A
N874   N957    1.420   .     A
N875   N880    1.420   .     A
N875   N876    1.420   .     A
N875   H1396   1.140   .     S
N876   N877    1.420   .     A
N877   N878    1.420   .     A
N878   N881    1.420   .     A
N878   N961    1.420   .     A
N879   N884    1.420   .     A
N879   N880    1.420   .     A
N879   H1397   1.140   .     S
N880   N881    1.420   .     A
N881   N882    1.420   .     A
N882   N885    1.420   .     A
N882   N965    1.420   .     A
N883   N888    1.420   .     A
N883   N884    1.420   .     A
N883   H1398   1.140   .     S
N884   N885    1.420   .     A
N885   N886    1.420   .     A
N886   N889    1.420   .     A
N886   N969    1.420   .     A
N887   N892    1.420   .     A
N887   N888    1.420   .     A
N887   H1399   1.140   .     S
N888   N889    1.420   .     A
N889   N890    1.420   .     A
N890   N893    1.420   .     A
N890   N973    1.420   .     A
N891   N896    1.420   .     A
N891   N892    1.420   .     A
N891   H1400   1.140   .     S
N892   N893    1.420   .     A
N893   N894    1.420   .     A
N894   N897    1.420   .     A
N894   N977    1.420   .     A
N895   N900    1.420   .     A
N895   N896    1.420   .     A
N895   H1401   1.140   .     S
N896   N897    1.420   .     A
N897   N898    1.420   .     A
N898   N901    1.420   .     A
N898   N981    1.420   .     A
N899   N904    1.420   .     A
N899   N900    1.420   .     A
N900   N901    1.420   .     A
N901   N902    1.420   .     A
N902   N905    1.420   .     A
N902   N985    1.420   .     A
N903   N908    1.420   .     A
N903   N904    1.420   .     A
N904   N905    1.420   .     A
N905   N906    1.420   .     A
N906   N909    1.420   .     A
N906   N989    1.420   .     A
N907   N912    1.420   .     A
N907   N908    1.420   .     A
N908   N909    1.420   .     A
N909   N910    1.420   .     A
N910   N913    1.420   .     A
N910   N993    1.420   .     A
N911   N916    1.420   .     A
N911   N912    1.420   .     A
N912   N913    1.420   .     A
N913   N914    1.420   .     A
N914   N917    1.420   .     A
N914   N997    1.420   .     A
N915   N920    1.420   .     A
N915   N916    1.420   .     A
N916   N917    1.420   .     A
N917   N918    1.420   .     A
N918   N921    1.420   .     A
N918   N1001   1.420   .     A
N919   N924    1.420   .     A
N919   N920    1.420   .     A
N920   N921    1.420   .     A
N921   N922    1.420   .     A
N922   N925    1.420   .     A
N922   N1005   1.420   .     A
N923   N928    1.420   .     A
N923   N924    1.420   .     A
N923   H1402   1.140   .     S
N924   N925    1.420   .     A
N925   N926    1.420   .     A
N926   N929    1.420   .     A
N926   N1009   1.420   .     A
N927   N932    1.420   .     A
N927   N928    1.420   .     A
N927   H1403   1.140   .     S
N928   N929    1.420   .     A
N929   N930    1.420   .     A
N930   N933    1.420   .     A
N930   N1013   1.420   .     A
N931   N936    1.420   .     A
N931   N932    1.420   .     A
N931   H1404   1.140   .     S
N932   N933    1.420   .     A
N933   N934    1.420   .     A
N934   N937    1.420   .     A
N934   N1017   1.420   .     A
N935   N940    1.420   .     A
N935   N936    1.420   .     A
N935   H1405   1.140   .     S
N936   N937    1.420   .     A
N937   N938    1.420   .     A
N938   N941    1.420   .     A
N938   N1021   1.420   .     A
N939   N944    1.420   .     A
N939   N940    1.420   .     A
N939   H1406   1.140   .     S
N940   N941    1.420   .     A
N941   N942    1.420   .     A
N942   N945    1.420   .     A
N942   N1025   1.420   .     A
N943   N948    1.420   .     A
N943   N944    1.420   .     A
N943   H1407   1.140   .     S
N944   N945    1.420   .     A
N945   N946    1.420   .     A
N946   N949    1.420   .     A
N946   N1029   1.420   .     A
N947   N951    1.420   .     A
N947   N948    1.420   .     A
N947   H1408   1.140   .     S
N948   N949    1.420   .     A
N949   N950    1.420   .     A
N950   N952    1.420   .     A
N950   N1033   1.420   .     A
N951   N952    1.420   .     A
N951   H955    1.140   .     S
N952   H956    1.140   .     S
N957   N962    1.420   .     A
N957   N958    1.420   .     A
N958   N959    1.420   .     A
N958   H1039   1.140   .     S
N959   N960    1.420   .     A
N959   H1040   1.140   .     S
N960   N963    1.420   .     A
N960   N1043   1.420   .     A
N961   N966    1.420   .     A
N961   N962    1.420   .     A
N962   N963    1.420   .     A
N963   N964    1.420   .     A
N964   N967    1.420   .     A
N964   N1047   1.420   .     A
N965   N970    1.420   .     A
N965   N966    1.420   .     A
N966   N967    1.420   .     A
N967   N968    1.420   .     A
N968   N971    1.420   .     A
N968   N1051   1.420   .     A
N969   N974    1.420   .     A
N969   N970    1.420   .     A
N970   N971    1.420   .     A
N971   N972    1.420   .     A
N972   N975    1.420   .     A
N972   N1055   1.420   .     A
N973   N978    1.420   .     A
N973   N974    1.420   .     A
N974   N975    1.420   .     A
N975   N976    1.420   .     A
N976   N979    1.420   .     A
N976   N1059   1.420   .     A
N977   N982    1.420   .     A
N977   N978    1.420   .     A
N978   N979    1.420   .     A
N979   N980    1.420   .     A
N980   N983    1.420   .     A
N980   N1063   1.420   .     A
N981   N986    1.420   .     A
N981   N982    1.420   .     A
N982   N983    1.420   .     A
N983   N984    1.420   .     A
N984   N987    1.420   .     A
N984   N1067   1.420   .     A
N985   N990    1.420   .     A
N985   N986    1.420   .     A
N986   N987    1.420   .     A
N987   N988    1.420   .     A
N988   N991    1.420   .     A
N988   N1071   1.420   .     A
N989   N994    1.420   .     A
N989   N990    1.420   .     A
N990   N991    1.420   .     A
N991   N992    1.420   .     A
N992   N995    1.420   .     A
N992   N1075   1.420   .     A
N993   N998    1.420   .     A
N993   N994    1.420   .     A
N994   N995    1.420   .     A
N995   N996    1.420   .     A
N996   N999    1.420   .     A
N996   N1079   1.420   .     A
N997   N1002   1.420   .     A
N997   N998    1.420   .     A
N998   N999    1.420   .     A
N999   N1000   1.420   .     A
N1000  N1003   1.420   .     A
N1000  N1083   1.420   .     A
N1001  N1006   1.420   .     A
N1001  N1002   1.420   .     A
N1002  N1003   1.420   .     A
N1003  N1004   1.420   .     A
N1004  N1007   1.420   .     A
N1004  N1087   1.420   .     A
N1005  N1010   1.420   .     A
N1005  N1006   1.420   .     A
N1006  N1007   1.420   .     A
N1007  N1008   1.420   .     A
N1008  N1011   1.420   .     A
N1008  N1091   1.420   .     A
N1009  N1014   1.420   .     A
N1009  N1010   1.420   .     A
N1010  N1011   1.420   .     A
N1011  N1012   1.420   .     A
N1012  N1015   1.420   .     A
N1012  N1095   1.420   .     A
N1013  N1018   1.420   .     A
N1013  N1014   1.420   .     A
N1014  N1015   1.420   .     A
N1015  N1016   1.420   .     A
N1016  N1019   1.420   .     A
N1016  N1099   1.420   .     A
N1017  N1022   1.420   .     A
N1017  N1018   1.420   .     A
N1018  N1019   1.420   .     A
N1019  N1020   1.420   .     A
N1020  N1023   1.420   .     A
N1020  N1103   1.420   .     A
N1021  N1026   1.420   .     A
N1021  N1022   1.420   .     A
N1022  N1023   1.420   .     A
N1023  N1024   1.420   .     A
N1024  N1027   1.420   .     A
N1024  N1107   1.420   .     A
N1025  N1030   1.420   .     A
N1025  N1026   1.420   .     A
N1026  N1027   1.420   .     A
N1027  N1028   1.420   .     A
N1028  N1031   1.420   .     A
N1028  N1111   1.420   .     A
N1029  N1034   1.420   .     A
N1029  N1030   1.420   .     A
N1030  N1031   1.420   .     A
N1031  N1032   1.420   .     A
N1032  N1035   1.420   .     A
N1032  N1115   1.420   .     A
N1033  N1037   1.420   .     A
N1033  N1034   1.420   .     A
N1034  N1035   1.420   .     A
N1035  N1036   1.420   .     A
N1036  N1038   1.420   .     A
N1036  N1119   1.420   .     A
N1037  N1038   1.420   .     A
N1037  H1041   1.140   .     S
N1038  H1042   1.140   .     S
N1043  N1048   1.420   .     A
N1043  N1044   1.420   .     A
N1044  N1045   1.420   .     A
N1044  H1125   1.140   .     S
N1045  N1046   1.420   .     A
N1045  H1126   1.140   .     S
N1046  N1049   1.420   .     A
N1046  N1129   1.420   .     A
N1047  N1052   1.420   .     A
N1047  N1048   1.420   .     A
N1048  N1049   1.420   .     A
N1049  N1050   1.420   .     A
N1050  N1053   1.420   .     A
N1050  N1133   1.420   .     A
N1051  N1056   1.420   .     A
N1051  N1052   1.420   .     A
N1052  N1053   1.420   .     A
N1053  N1054   1.420   .     A
N1054  N1057   1.420   .     A
N1054  N1137   1.420   .     A
N1055  N1060   1.420   .     A
N1055  N1056   1.420   .     A
N1056  N1057   1.420   .     A
N1057  N1058   1.420   .     A
N1058  N1061   1.420   .     A
N1058  N1141   1.420   .     A
N1059  N1064   1.420   .     A
N1059  N1060   1.420   .     A
N1060  N1061   1.420   .     A
N1061  N1062   1.420   .     A
N1062  N1065   1.420   .     A
N1062  N1145   1.420   .     A
N1063  N1068   1.420   .     A
N1063  N1064   1.420   .     A
N1064  N1065   1.420   .     A
N1065  N1066   1.420   .     A
N1066  N1069   1.420   .     A
N1066  N1149   1.420   .     A
N1067  N1072   1.420   .     A
N1067  N1068   1.420   .     A
N1068  N1069   1.420   .     A
N1069  N1070   1.420   .     A
N1070  N1073   1.420   .     A
N1070  N1153   1.420   .     A
N1071  N1076   1.420   .     A
N1071  N1072   1.420   .     A
N1072  N1073   1.420   .     A
N1073  N1074   1.420   .     A
N1074  N1077   1.420   .     A
N1074  N1157   1.420   .     A
N1075  N1080   1.420   .     A
N1075  N1076   1.420   .     A
N1076  N1077   1.420   .     A
N1077  N1078   1.420   .     A
N1078  N1081   1.420   .     A
N1078  N1161   1.420   .     A
N1079  N1084   1.420   .     A
N1079  N1080   1.420   .     A
N1080  N1081   1.420   .     A
N1081  N1082   1.420   .     A
N1082  N1085   1.420   .     A
N1082  N1165   1.420   .     A
N1083  N1088   1.420   .     A
N1083  N1084   1.420   .     A
N1084  N1085   1.420   .     A
N1085  N1086   1.420   .     A
N1086  N1089   1.420   .     A
N1086  N1169   1.420   .     A
N1087  N1092   1.420   .     A
N1087  N1088   1.420   .     A
N1088  N1089   1.420   .     A
N1089  N1090   1.420   .     A
N1090  N1093   1.420   .     A
N1090  N1173   1.420   .     A
N1091  N1096   1.420   .     A
N1091  N1092   1.420   .     A
N1092  N1093   1.420   .     A
N1093  N1094   1.420   .     A
N1094  N1097   1.420   .     A
N1094  N1177   1.420   .     A
N1095  N1100   1.420   .     A
N1095  N1096   1.420   .     A
N1096  N1097   1.420   .     A
N1097  N1098   1.420   .     A
N1098  N1101   1.420   .     A
N1098  N1181   1.420   .     A
N1099  N1104   1.420   .     A
N1099  N1100   1.420   .     A
N1100  N1101   1.420   .     A
N1101  N1102   1.420   .     A
N1102  N1105   1.420   .     A
N1102  N1185   1.420   .     A
N1103  N1108   1.420   .     A
N1103  N1104   1.420   .     A
N1104  N1105   1.420   .     A
N1105  N1106   1.420   .     A
N1106  N1109   1.420   .     A
N1106  N1189   1.420   .     A
N1107  N1112   1.420   .     A
N1107  N1108   1.420   .     A
N1108  N1109   1.420   .     A
N1109  N1110   1.420   .     A
N1110  N1113   1.420   .     A
N1110  N1193   1.420   .     A
N1111  N1116   1.420   .     A
N1111  N1112   1.420   .     A
N1112  N1113   1.420   .     A
N1113  N1114   1.420   .     A
N1114  N1117   1.420   .     A
N1114  N1197   1.420   .     A
N1115  N1120   1.420   .     A
N1115  N1116   1.420   .     A
N1116  N1117   1.420   .     A
N1117  N1118   1.420   .     A
N1118  N1121   1.420   .     A
N1118  N1201   1.420   .     A
N1119  N1123   1.420   .     A
N1119  N1120   1.420   .     A
N1120  N1121   1.420   .     A
N1121  N1122   1.420   .     A
N1122  N1124   1.420   .     A
N1122  N1205   1.420   .     A
N1123  N1124   1.420   .     A
N1123  H1127   1.140   .     S
N1124  H1128   1.140   .     S
N1129  N1134   1.420   .     A
N1129  N1130   1.420   .     A
N1130  N1131   1.420   .     A
N1130  H1211   1.140   .     S
N1131  N1132   1.420   .     A
N1131  H1212   1.140   .     S
N1132  N1135   1.420   .     A
N1132  N1215   1.420   .     A
N1133  N1138   1.420   .     A
N1133  N1134   1.420   .     A
N1134  N1135   1.420   .     A
N1135  N1136   1.420   .     A
N1136  N1139   1.420   .     A
N1136  N1219   1.420   .     A
N1137  N1142   1.420   .     A
N1137  N1138   1.420   .     A
N1138  N1139   1.420   .     A
N1139  N1140   1.420   .     A
N1140  N1143   1.420   .     A
N1140  N1223   1.420   .     A
N1141  N1146   1.420   .     A
N1141  N1142   1.420   .     A
N1142  N1143   1.420   .     A
N1143  N1144   1.420   .     A
N1144  N1147   1.420   .     A
N1144  N1227   1.420   .     A
N1145  N1150   1.420   .     A
N1145  N1146   1.420   .     A
N1146  N1147   1.420   .     A
N1147  N1148   1.420   .     A
N1148  N1151   1.420   .     A
N1148  N1231   1.420   .     A
N1149  N1154   1.420   .     A
N1149  N1150   1.420   .     A
N1150  N1151   1.420   .     A
N1151  N1152   1.420   .     A
N1152  N1155   1.420   .     A
N1152  N1235   1.420   .     A
N1153  N1158   1.420   .     A
N1153  N1154   1.420   .     A
N1154  N1155   1.420   .     A
N1155  N1156   1.420   .     A
N1156  N1159   1.420   .     A
N1156  N1239   1.420   .     A
N1157  N1162   1.420   .     A
N1157  N1158   1.420   .     A
N1158  N1159   1.420   .     A
N1159  N1160   1.420   .     A
N1160  N1163   1.420   .     A
N1160  N1243   1.420   .     A
N1161  N1166   1.420   .     A
N1161  N1162   1.420   .     A
N1162  N1163   1.420   .     A
N1163  N1164   1.420   .     A
N1164  N1167   1.420   .     A
N1164  N1247   1.420   .     A
N1165  N1170   1.420   .     A
N1165  N1166   1.420   .     A
N1166  N1167   1.420   .     A
N1167  N1168   1.420   .     A
N1168  N1171   1.420   .     A
N1168  N1251   1.420   .     A
N1169  N1174   1.420   .     A
N1169  N1170   1.420   .     A
N1170  N1171   1.420   .     A
N1171  N1172   1.420   .     A
N1172  N1175   1.420   .     A
N1172  N1255   1.420   .     A
N1173  N1178   1.420   .     A
N1173  N1174   1.420   .     A
N1174  N1175   1.420   .     A
N1175  N1176   1.420   .     A
N1176  N1179   1.420   .     A
N1176  N1259   1.420   .     A
N1177  N1182   1.420   .     A
N1177  N1178   1.420   .     A
N1178  N1179   1.420   .     A
N1179  N1180   1.420   .     A
N1180  N1183   1.420   .     A
N1180  N1263   1.420   .     A
N1181  N1186   1.420   .     A
N1181  N1182   1.420   .     A
N1182  N1183   1.420   .     A
N1183  N1184   1.420   .     A
N1184  N1187   1.420   .     A
N1184  N1267   1.420   .     A
N1185  N1190   1.420   .     A
N1185  N1186   1.420   .     A
N1186  N1187   1.420   .     A
N1187  N1188   1.420   .     A
N1188  N1191   1.420   .     A
N1188  N1271   1.420   .     A
N1189  N1194   1.420   .     A
N1189  N1190   1.420   .     A
N1190  N1191   1.420   .     A
N1191  N1192   1.420   .     A
N1192  N1195   1.420   .     A
N1192  N1275   1.420   .     A
N1193  N1198   1.420   .     A
N1193  N1194   1.420   .     A
N1194  N1195   1.420   .     A
N1195  N1196   1.420   .     A
N1196  N1199   1.420   .     A
N1196  N1279   1.420   .     A
N1197  N1202   1.420   .     A
N1197  N1198   1.420   .     A
N1198  N1199   1.420   .     A
N1199  N1200   1.420   .     A
N1200  N1203   1.420   .     A
N1200  N1283   1.420   .     A
N1201  N1206   1.420   .     A
N1201  N1202   1.420   .     A
N1202  N1203   1.420   .     A
N1203  N1204   1.420   .     A
N1204  N1207   1.420   .     A
N1204  N1287   1.420   .     A
N1205  N1209   1.420   .     A
N1205  N1206   1.420   .     A
N1206  N1207   1.420   .     A
N1207  N1208   1.420   .     A
N1208  N1210   1.420   .     A
N1208  N1291   1.420   .     A
N1209  N1210   1.420   .     A
N1209  H1213   1.140   .     S
N1210  H1214   1.140   .     S
N1215  N1220   1.420   .     A
N1215  N1216   1.420   .     A
N1216  N1217   1.420   .     A
N1216  H1297   1.140   .     S
N1217  N1218   1.420   .     A
N1217  H1298   1.140   .     S
N1218  N1221   1.420   .     A
N1218  N1      1.420   1_565 A
N1219  N1224   1.420   .     A
N1219  N1220   1.420   .     A
N1220  N1221   1.420   .     A
N1221  N1222   1.420   .     A
N1222  N1225   1.420   .     A
N1222  N5      1.420   1_565 A
N1223  N1228   1.420   .     A
N1223  N1224   1.420   .     A
N1224  N1225   1.420   .     A
N1225  N1226   1.420   .     A
N1226  N1229   1.420   .     A
N1226  N9      1.420   1_565 A
N1227  N1232   1.420   .     A
N1227  N1228   1.420   .     A
N1228  N1229   1.420   .     A
N1229  N1230   1.420   .     A
N1230  N1233   1.420   .     A
N1230  N13     1.420   1_565 A
N1231  N1236   1.420   .     A
N1231  N1232   1.420   .     A
N1232  N1233   1.420   .     A
N1233  N1234   1.420   .     A
N1234  N1237   1.420   .     A
N1234  N17     1.420   1_565 A
N1235  N1240   1.420   .     A
N1235  N1236   1.420   .     A
N1236  N1237   1.420   .     A
N1237  N1238   1.420   .     A
N1238  N1241   1.420   .     A
N1238  N21     1.420   1_565 A
N1239  N1244   1.420   .     A
N1239  N1240   1.420   .     A
N1240  N1241   1.420   .     A
N1241  N1242   1.420   .     A
N1242  N1245   1.420   .     A
N1242  N25     1.420   1_565 A
N1243  N1248   1.420   .     A
N1243  N1244   1.420   .     A
N1244  N1245   1.420   .     A
N1245  N1246   1.420   .     A
N1246  N1249   1.420   .     A
N1246  N29     1.420   1_565 A
N1247  N1252   1.420   .     A
N1247  N1248   1.420   .     A
N1248  N1249   1.420   .     A
N1249  N1250   1.420   .     A
N1250  N1253   1.420   .     A
N1250  N33     1.420   1_565 A
N1251  N1256   1.420   .     A
N1251  N1252   1.420   .     A
N1252  N1253   1.420   .     A
N1253  N1254   1.420   .     A
N1254  N1257   1.420   .     A
N1254  N37     1.420   1_565 A
N1255  N1260   1.420   .     A
N1255  N1256   1.420   .     A
N1256  N1257   1.420   .     A
N1257  N1258   1.420   .     A
N1258  N1261   1.420   .     A
N1258  N41     1.420   1_565 A
N1259  N1264   1.420   .     A
N1259  N1260   1.420   .     A
N1260  N1261   1.420   .     A
N1261  N1262   1.420   .     A
N1262  N1265   1.420   .     A
N1262  N45     1.420   1_565 A
N1263  N1268   1.420   .     A
N1263  N1264   1.420   .     A
N1264  N1265   1.420   .     A
N1265  N1266   1.420   .     A
N1266  N1269   1.420   .     A
N1266  N49     1.420   1_565 A
N1267  N1272   1.420   .     A
N1267  N1268   1.420   .     A
N1268  N1269   1.420   .     A
N1269  N1270   1.420   .     A
N1270  N1273   1.420   .     A
N1270  N53     1.420   1_565 A
N1271  N1276   1.420   .     A
N1271  N1272   1.420   .     A
N1272  N1273   1.420   .     A
N1273  N1274   1.420   .     A
N1274  N1277   1.420   .     A
N1274  N57     1.420   1_565 A
N1275  N1280   1.420   .     A
N1275  N1276   1.420   .     A
N1276  N1277   1.420   .     A
N1277  N1278   1.420   .     A
N1278  N1281   1.420   .     A
N1278  N61     1.420   1_565 A
N1279  N1284   1.420   .     A
N1279  N1280   1.420   .     A
N1280  N1281   1.420   .     A
N1281  N1282   1.420   .     A
N1282  N1285   1.420   .     A
N1282  N65     1.420   1_565 A
N1283  N1288   1.420   .     A
N1283  N1284   1.420   .     A
N1284  N1285   1.420   .     A
N1285  N1286   1.420   .     A
N1286  N1289   1.420   .     A
N1286  N69     1.420   1_565 A
N1287  N1292   1.420   .     A
N1287  N1288   1.420   .     A
N1288  N1289   1.420   .     A
N1289  N1290   1.420   .     A
N1290  N1293   1.420   .     A
N1290  N73     1.420   1_565 A
N1291  N1295   1.420   .     A
N1291  N1292   1.420   .     A
N1292  N1293   1.420   .     A
N1293  N1294   1.420   .     A
N1294  N1296   1.420   .     A
N1294  N77     1.420   1_565 A
N1295  N1296   1.420   .     A
N1295  H1299   1.140   .     S
N1296  H1300   1.140   .     S
